
  EPA STORM WATER MANAGEMENT MODEL - VERSION 5.2 (Build 5.2.4)
  ------------------------------------------------------------

  
  ****************
  Analysis Options
  ****************
  Flow Units ............... CMS
  Process Models:
    Rainfall/Runoff ........ YES
    RDII ................... NO
    Snowmelt ............... NO
    Groundwater ............ NO
    Flow Routing ........... YES
    Ponding Allowed ........ NO
    Water Quality .......... NO
  Infiltration Method ...... GREEN_AMPT
  Flow Routing Method ...... DYNWAVE
  Surcharge Method ......... EXTRAN
  Starting Date ............ 01/01/2018 00:00:00
  Ending Date .............. 01/01/2019 01:00:00
  Antecedent Dry Days ...... 0.0
  Report Time Step ......... 00:01:00
  Wet Time Step ............ 00:01:00
  Dry Time Step ............ 00:01:00
  Routing Time Step ........ 30.00 sec
  Variable Time Step ....... YES
  Maximum Trials ........... 8
  Number of Threads ........ 1
  Head Tolerance ........... 0.001500 m
  
  
  **************************        Volume         Depth
  Runoff Quantity Continuity     hectare-m            mm
  **************************     ---------       -------
  Total Precipitation ......       225.235      1160.526
  Evaporation Loss .........         0.000         0.000
  Infiltration Loss ........       159.815       823.450
  Surface Runoff ...........        65.405       337.002
  Final Storage ............         0.015         0.075
  Continuity Error (%) .....        -0.000
  
  
  **************************        Volume        Volume
  Flow Routing Continuity        hectare-m      10^6 ltr
  **************************     ---------     ---------
  Dry Weather Inflow .......         0.000         0.000
  Wet Weather Inflow .......        65.405       654.058
  Groundwater Inflow .......         0.000         0.000
  RDII Inflow ..............         0.000         0.000
  External Inflow ..........         0.000         0.000
  External Outflow .........         7.045        70.453
  Flooding Loss ............        58.365       583.653
  Evaporation Loss .........         0.000         0.000
  Exfiltration Loss ........         0.000         0.000
  Initial Stored Volume ....         0.000         0.000
  Final Stored Volume ......         0.005         0.051
  Continuity Error (%) .....        -0.015
  
  
  ***************************
  Time-Step Critical Elements
  ***************************
  Link C41 (33.80%)
  Link C88 (5.58%)
  Link C97 (2.56%)
  Link C99 (1.46%)
  
  
  ********************************
  Highest Flow Instability Indexes
  ********************************
  Link C62 (1)
  
  
  *********************************
  Most Frequent Nonconverging Nodes
  *********************************
  Node O1 (0.10%)
  Node J67 (0.09%)
  Node J66 (0.04%)
  Node J35 (0.00%)
  Node J22 (0.00%)
  
  
  *************************
  Routing Time Step Summary
  *************************
  Minimum Time Step           :     0.50 sec
  Average Time Step           :    22.53 sec
  Maximum Time Step           :    30.00 sec
  % of Time in Steady State   :     0.00
  Average Iterations per Step :     2.02
  % of Steps Not Converging   :     0.10
  Time Step Frequencies       :
     30.000 - 13.228 sec      :    75.79 %
     13.228 -  5.833 sec      :    20.36 %
      5.833 -  2.572 sec      :     3.58 %
      2.572 -  1.134 sec      :     0.27 %
      1.134 -  0.500 sec      :     0.00 %
  
  
  ***************************
  Subcatchment Runoff Summary
  ***************************
  
  ------------------------------------------------------------------------------------------------------------------------------
                            Total      Total      Total      Total     Imperv       Perv      Total       Total     Peak  Runoff
                           Precip      Runon       Evap      Infil     Runoff     Runoff     Runoff      Runoff   Runoff   Coeff
  Subcatchment                 mm         mm         mm         mm         mm         mm         mm    10^6 ltr      CMS
  ------------------------------------------------------------------------------------------------------------------------------
  W1                      1160.53       0.00       0.00     832.36      15.42     312.73     328.16       12.77     0.04   0.283
  W2                      1160.53       0.00       0.00     820.68      31.08     308.75     339.82       24.77     0.07   0.293
  W3                      1160.53       0.00       0.00     825.74      21.80     312.97     334.77       23.43     0.06   0.288
  W4                      1160.53    1092.92       0.00     891.41      33.79    1328.23    1362.02      117.82     0.36   0.604
  W5                      1160.53       0.00       0.00     832.97       9.16     318.39     327.55       22.57     0.06   0.282
  W6                      1160.53       0.00       0.00     823.61      16.70     320.20     336.90       14.96     0.04   0.290
  W7                      1160.53       0.00       0.00     810.61      22.96     326.94     349.90       28.90     0.08   0.302
  W8                      1160.53       0.00       0.00     824.05      11.71     324.75     336.47        8.18     0.02   0.290
  W9                      1160.53       0.00       0.00     810.74      32.47     317.29     349.76       37.18     0.10   0.301
  W10                     1160.53       0.00       0.00     810.62      32.47     317.41     349.88       30.26     0.08   0.301
  W11                     1160.53       0.00       0.00     815.09       9.28     336.15     345.42       23.32     0.06   0.298
  W12                     1160.53       0.00       0.00     810.72      21.57     328.23     349.79       15.36     0.04   0.301
  W13                     1160.53       0.00       0.00     832.62       3.83     324.08     327.91        2.75     0.01   0.283
  W14                     1160.53       0.00       0.00     806.18      24.00     330.33     354.33       15.80     0.04   0.305
  W15                     1160.53       0.00       0.00     819.83      13.68     327.00     340.68       24.94     0.07   0.294
  W16                     1160.53     644.39       0.00     834.63      33.91     936.35     970.27       37.55     0.10   0.538
  W17                     1160.53       0.00       0.00     809.67       5.33     345.52     350.85        4.14     0.01   0.302
  W18                     1160.53       0.00       0.00     798.88      26.09     335.54     361.63       22.67     0.06   0.312
  W19                     1160.53       0.00       0.00     820.19       0.93     339.40     340.33       19.74     0.05   0.293
  W20                     1160.53       0.00       0.00     816.48      10.44     333.60     344.04       18.13     0.05   0.296
  W21                     1160.53       0.00       0.00     825.71      22.96     311.84     334.80       28.32     0.08   0.288
  W22                     1160.53     331.27       0.00     838.53      53.07     600.17     653.24       55.85     0.16   0.438
  W23                     1160.53       0.00       0.00     805.28      29.45     325.77     355.22       22.17     0.06   0.306
  W24                     1160.53       0.00       0.00     817.73      19.60     323.18     342.78       13.78     0.04   0.295
  W25                     1160.53     741.55       0.00     895.28      26.43     980.36    1006.79       94.54     0.28   0.529
  W26                     1160.53       0.00       0.00     803.30       6.61     350.61     357.22        5.11     0.01   0.308
  W27                     1160.53       0.00       0.00     801.04       5.45     354.03     359.48        3.31     0.01   0.310
  W28                     1160.53       0.00       0.00    1156.93       0.00       0.00       0.00        0.00     0.00   0.000
  W29                     1160.53       0.00       0.00    1154.96       0.00       0.00       0.00        0.00     0.00   0.000
  W30                     1160.53       0.00       0.00     799.02      20.87     340.62     361.49       14.17     0.04   0.311
  W31                     1160.53       0.00       0.00    1158.20       0.00       0.00       0.00        0.00     0.00   0.000
  W32                     1160.53       0.00       0.00    1157.74       0.00       0.00       0.00        0.00     0.00   0.000
  W33                     1160.53       0.00       0.00     773.45      73.98     313.04     387.02       64.98     0.15   0.333
  W34                     1160.53       0.00       0.00     789.62      26.21     344.68     370.88       16.54     0.04   0.320
  W35                     1160.53       0.00       0.00     797.49      40.01     323.00     363.00       47.48     0.12   0.313
  
  
  ******************
  Node Depth Summary
  ******************
  
  ---------------------------------------------------------------------------------
                                 Average  Maximum  Maximum  Time of Max    Reported
                                   Depth    Depth      HGL   Occurrence   Max Depth
  Node                 Type       Meters   Meters   Meters  days hr:min      Meters
  ---------------------------------------------------------------------------------
  J1                   JUNCTION     0.01     0.11    49.06   268  00:00        0.11
  J2                   JUNCTION     0.01     0.08    47.61   268  00:00        0.08
  J3                   JUNCTION     0.01     0.12    44.72   268  00:00        0.12
  J4                   JUNCTION     0.02     0.17    40.08   268  00:00        0.17
  J5                   JUNCTION     0.02     0.32    40.38   268  00:00        0.32
  J6                   JUNCTION     0.03     0.44    40.56   268  00:00        0.44
  J7                   JUNCTION     0.01     0.10    43.96   268  00:00        0.10
  J8                   JUNCTION     0.05     2.00    50.97   254  08:08        2.00
  J9                   JUNCTION     0.02     0.19    45.67   254  08:13        0.19
  J10                  JUNCTION     0.04     1.29    38.16   268  00:00        1.29
  J11                  JUNCTION     0.04     1.00    35.05   254  07:06        1.00
  J12                  JUNCTION     1.68     1.80    32.98    22  23:26        1.80
  J13                  JUNCTION     0.01     0.10    33.51   268  00:00        0.10
  J14                  JUNCTION     0.01     0.06    32.94   267  01:34        0.06
  J15                  JUNCTION     0.03     0.17    27.10   268  00:00        0.17
  J16                  JUNCTION     0.02     0.15    25.66   268  00:00        0.15
  J17                  JUNCTION     0.02     0.15    22.49   268  00:00        0.15
  J18                  JUNCTION     0.05     0.58    20.65   268  00:00        0.58
  J19                  JUNCTION     0.02     0.15    21.50   254  03:21        0.15
  J20                  JUNCTION     0.03     0.37    22.02   267  03:18        0.36
  J21                  JUNCTION     0.04     0.60    22.44   254  03:21        0.60
  J22                  JUNCTION     0.04     1.34    23.62   268  00:00        1.34
  J23                  JUNCTION     0.04     1.50    24.78   268  00:00        1.50
  J24                  JUNCTION     0.01     0.15    26.71   268  00:00        0.15
  J25                  JUNCTION     0.02     0.25    27.31   268  00:00        0.25
  J26                  JUNCTION     0.03     0.59    27.82   268  00:00        0.59
  J27                  JUNCTION     0.02     0.19    20.06   268  00:00        0.19
  J28                  JUNCTION     0.03     0.27    15.28   268  00:00        0.27
  J29                  JUNCTION     0.03     0.47    15.69   268  00:00        0.47
  J30                  JUNCTION     0.02     0.18    16.70   268  00:00        0.18
  J31                  JUNCTION     0.02     0.21    17.61   268  00:00        0.21
  J32                  JUNCTION     0.23     0.88    18.09   268  00:00        0.88
  J33                  JUNCTION     0.01     0.09    19.88   268  00:00        0.09
  J34                  JUNCTION     0.07     1.20    12.99   254  02:58        1.20
  J35                  JUNCTION     0.08     1.10    12.59   267  23:55        1.10
  J36                  JUNCTION     0.03     0.87    12.66   267  23:55        0.87
  J37                  JUNCTION     0.02     0.65    12.73   267  23:55        0.65
  J38                  JUNCTION     0.05     0.52    11.74   267  23:23        0.52
  J39                  JUNCTION     0.01     0.11    12.92   267  23:23        0.11
  J40                  JUNCTION     0.01     0.15    13.26   267  23:23        0.15
  J41                  JUNCTION     0.03     0.22     9.96   268  00:35        0.22
  J42                  JUNCTION     0.02     0.20     6.44   268  00:36        0.20
  J43                  JUNCTION     0.00     0.00     9.75     0  00:00        0.00
  J44                  JUNCTION     0.02     0.19     6.63   267  04:16        0.19
  J45                  JUNCTION     0.04     0.38     6.83   254  04:24        0.38
  J46                  JUNCTION     0.02     0.31     6.96   254  04:24        0.31
  J47                  JUNCTION     0.02     0.30     7.10   254  04:24        0.30
  J48                  JUNCTION     0.02     0.17     6.31   254  04:56        0.17
  J49                  JUNCTION     0.02     0.14     6.09   254  04:57        0.14
  J50                  JUNCTION     0.03     0.22     5.87   267  04:30        0.22
  J51                  JUNCTION     0.00     0.04     8.19   267  23:57        0.04
  J52                  JUNCTION     0.01     0.06     8.71   268  00:00        0.06
  J53                  JUNCTION     0.03     0.24     5.93   267  04:32        0.24
  J54                  JUNCTION     0.02     0.19     5.97   267  18:08        0.19
  J55                  JUNCTION     0.03     0.23     6.05   267  18:09        0.23
  J56                  JUNCTION     0.04     0.27     6.11   267  18:09        0.27
  J57                  JUNCTION     0.04     0.30     6.14   254  02:12        0.30
  J58                  JUNCTION     0.02     0.25     6.20   268  00:00        0.25
  J59                  JUNCTION     0.01     0.11     8.10   268  00:00        0.11
  J60                  JUNCTION     0.01     0.10    11.23   268  00:00        0.10
  J61                  JUNCTION     0.02     0.17    11.80   268  00:00        0.17
  J62                  JUNCTION     0.02     0.18     5.75   267  04:31        0.18
  J63                  JUNCTION     0.01     0.12     5.49   267  04:31        0.12
  J64                  JUNCTION     0.01     0.09     4.73   267  04:31        0.09
  J65                  JUNCTION     0.07     1.00     3.51   254  02:37        1.00
  J66                  JUNCTION     0.14     1.40     3.51   254  02:37        1.40
  J67                  JUNCTION     0.04     0.80     3.51    60  07:53        0.80
  J68                  JUNCTION     0.06     0.30     2.45    22  21:08        0.30
  J69                  JUNCTION     0.02     0.21    32.69   268  00:00        0.21
  J70                  JUNCTION     0.06     0.30    26.21    60  06:33        0.30
  J71                  JUNCTION     0.01     0.05    25.95   105  08:06        0.05
  J72                  JUNCTION     0.05     0.28    16.10   255  02:18        0.28
  J73                  JUNCTION     0.01     0.10    15.89   267  23:59        0.10
  J74                  JUNCTION     0.06     0.30     8.72    35  14:01        0.30
  J75                  JUNCTION     0.06     0.26     8.67   267  01:48        0.26
  J76                  JUNCTION     0.01     0.07     8.47    41  13:11        0.07
  J77                  JUNCTION     0.07     0.30     6.48    35  10:25        0.30
  J78                  JUNCTION     0.07     0.30     6.47    35  17:46        0.30
  J79                  JUNCTION     0.02     0.09     6.26   267  01:40        0.09
  J80                  JUNCTION     0.01     0.07     3.62   267  01:42        0.07
  J81                  JUNCTION     0.29     0.30     3.55    12  03:54        0.30
  J82                  JUNCTION     0.00     0.00     4.84     0  00:00        0.00
  J83                  JUNCTION     0.04     0.50     3.54   254  02:39        0.50
  J84                  JUNCTION     0.01     0.30     3.55   254  02:38        0.30
  J85                  JUNCTION     0.00     0.04     4.88   267  23:40        0.04
  J86                  JUNCTION     0.09     0.30     2.02    22  16:34        0.30
  J87                  JUNCTION     0.02     0.10     2.03   197  03:33        0.10
  J88                  JUNCTION     0.03     0.09     1.77    22  18:45        0.09
  J89                  JUNCTION     0.09     0.41     0.93    60  13:48        0.41
  J90                  JUNCTION     0.01     0.14     0.94    60  13:46        0.14
  J91                  JUNCTION     0.00     0.04     0.94    60  13:45        0.04
  J92                  JUNCTION     0.01     0.10     0.94    60  13:47        0.10
  J93                  JUNCTION     0.00     0.05     0.94    60  13:47        0.05
  J94                  JUNCTION     0.00     0.00     1.67     0  00:00        0.00
  J95                  JUNCTION     0.00     0.00     2.07     0  00:00        0.00
  J96                  JUNCTION     0.00     0.00     2.07     0  00:00        0.00
  J97                  JUNCTION     0.00     0.00     2.17     0  00:00        0.00
  J98                  JUNCTION     0.11     0.50     0.92    12  13:14        0.50
  J99                  JUNCTION     0.13     0.60     0.92    12  13:14        0.60
  O1                   OUTFALL      0.30     1.97     2.19   299  17:59        1.97
  
  
  *******************
  Node Inflow Summary
  *******************
  
  -------------------------------------------------------------------------------------------------
                                  Maximum  Maximum                  Lateral       Total        Flow
                                  Lateral    Total  Time of Max      Inflow      Inflow     Balance
                                   Inflow   Inflow   Occurrence      Volume      Volume       Error
  Node                 Type           CMS      CMS  days hr:min    10^6 ltr    10^6 ltr     Percent
  -------------------------------------------------------------------------------------------------
  J1                   JUNCTION     0.035    0.035   268  00:00        12.8        12.8      -0.001
  J2                   JUNCTION     0.000    0.035   268  00:00           0        12.8       0.001
  J3                   JUNCTION     0.066    0.102   268  00:00        24.8        37.5      -0.002
  J4                   JUNCTION     0.000    0.166   268  00:00           0          61      -0.002
  J5                   JUNCTION     0.000    0.064   268  00:00           0        23.4       0.003
  J6                   JUNCTION     0.000    0.064   268  00:00           0        23.4      -0.001
  J7                   JUNCTION     0.064    0.064   268  00:00        23.4        23.4      -0.000
  J8                   JUNCTION     0.356    0.356   268  00:00         118         118       0.000
  J9                   JUNCTION     0.000    0.245   255  00:12           0         107       0.000
  J10                  JUNCTION     0.000    0.411   268  00:00           0         168      -0.000
  J11                  JUNCTION     0.000    0.411   268  00:00           0         168      -0.000
  J12                  JUNCTION     0.063    0.447   268  00:00        22.6         198       0.010
  J13                  JUNCTION     0.040    0.040   268  00:00          15          15      -0.000
  J14                  JUNCTION     0.000    0.023   267  01:32           0        49.3      -0.001
  J15                  JUNCTION     0.075    0.098   268  00:00        28.9        78.2      -0.000
  J16                  JUNCTION     0.022    0.120   268  00:00        8.18        86.4      -0.001
  J17                  JUNCTION     0.000    0.120   268  00:00           0        86.4       0.001
  J18                  JUNCTION     0.000    0.227   268  00:00           0         155       0.000
  J19                  JUNCTION     0.000    0.107   267  03:18           0        68.6      -0.001
  J20                  JUNCTION     0.000    0.110   267  03:18           0        68.6      -0.000
  J21                  JUNCTION     0.040    0.216   268  00:00        15.4        82.8      -0.000
  J22                  JUNCTION     0.000    0.176   268  00:00           0        67.4       0.000
  J23                  JUNCTION     0.000    0.176   268  00:00           0        67.4       0.000
  J24                  JUNCTION     0.079    0.176   268  00:00        30.3        67.4      -0.000
  J25                  JUNCTION     0.000    0.097   268  00:00           0        37.2       0.001
  J26                  JUNCTION     0.097    0.097   268  00:00        37.2        37.2      -0.001
  J27                  JUNCTION     0.061    0.288   268  00:00        23.3         178      -0.000
  J28                  JUNCTION     0.000    0.393   268  00:00           0         219       0.000
  J29                  JUNCTION     0.000    0.105   268  00:00           0        40.3      -0.001
  J30                  JUNCTION     0.000    0.105   268  00:00           0        40.3      -0.000
  J31                  JUNCTION     0.000    0.105   268  00:00           0        40.3      -0.000
  J32                  JUNCTION     0.057    0.105   268  00:00        22.2        40.3       0.007
  J33                  JUNCTION     0.048    0.048   268  00:00        18.1        18.1      -0.000
  J34                  JUNCTION     0.000    0.393   268  00:00           0         219      -0.000
  J35                  JUNCTION     0.000    0.276   254  04:58           0         211       0.000
  J36                  JUNCTION     0.000    0.041   267  23:59           0        15.8      -0.005
  J37                  JUNCTION     0.041    0.041   268  00:00        15.8        15.8      -0.001
  J38                  JUNCTION     0.000    0.321   267  04:30           0         230       0.000
  J39                  JUNCTION     0.000    0.053   267  23:23           0        19.7      -0.002
  J40                  JUNCTION     0.053    0.053   267  23:31        19.7        19.7      -0.001
  J41                  JUNCTION     0.008    0.326   254  04:56        2.75         233      -0.000
  J42                  JUNCTION     0.000    0.390   268  00:35           0         266      -0.002
  J43                  JUNCTION     0.000    0.000     0  00:00           0           0       0.000 ltr
  J44                  JUNCTION     0.000    0.065   254  04:24           0          33      -0.000
  J45                  JUNCTION     0.000    0.065   254  04:24           0          33       0.001
  J46                  JUNCTION     0.000    0.065   254  04:24           0          33      -0.000
  J47                  JUNCTION     0.102    0.102   268  00:00        37.5        37.5      -0.000
  J48                  JUNCTION     0.000    0.392   268  00:36           0         266      -0.000
  J49                  JUNCTION     0.000    0.390   254  04:56           0         266      -0.000
  J50                  JUNCTION     0.000    0.448   267  04:30           0         304      -0.001
  J51                  JUNCTION     0.000    0.013   267  23:59           0        5.11       0.000
  J52                  JUNCTION     0.013    0.013   268  00:00        5.11        5.11      -0.006
  J53                  JUNCTION     0.000    0.045   267  10:07           0        32.6      -0.001
  J54                  JUNCTION     0.000    0.045   267  18:09           0        32.6       0.000
  J55                  JUNCTION     0.000    0.045   267  13:53           0        32.6       0.000
  J56                  JUNCTION     0.011    0.045   267  18:11        4.14        32.6       0.000
  J57                  JUNCTION     0.000    0.093   268  00:00           0        36.8       0.003
  J58                  JUNCTION     0.036    0.036   268  00:00        14.2        14.2      -0.006
  J59                  JUNCTION     0.000    0.057   268  00:00           0        22.7      -0.001
  J60                  JUNCTION     0.000    0.057   268  00:00           0        22.7      -0.001
  J61                  JUNCTION     0.057    0.057   268  00:00        22.7        22.7      -0.001
  J62                  JUNCTION     0.000    0.448   267  04:31           0         304       0.001
  J63                  JUNCTION     0.000    0.448   267  04:31           0         304      -0.001
  J64                  JUNCTION     0.000    0.448   267  04:31           0         304       0.000
  J65                  JUNCTION     0.000    0.463   354  06:52           0         309       0.014
  J66                  JUNCTION     0.000    0.663   197  06:55           0         322      -0.032
  J67                  JUNCTION     0.000    0.057    60  08:17           0       0.612      -9.574
  J68                  JUNCTION     0.000    0.182   254  02:39           0         132      -0.000
  J69                  JUNCTION     0.154    0.154   268  00:00          65          65      -0.000
  J70                  JUNCTION     0.000    0.154   268  00:00           0          65       0.001
  J71                  JUNCTION     0.000    0.029   254  07:25           0        39.9       0.000
  J72                  JUNCTION     0.000    0.029    60  06:43           0        39.9       0.001
  J73                  JUNCTION     0.041    0.070   267  23:59        16.5        56.5       0.000
  J74                  JUNCTION     0.000    0.070   267  23:59           0        56.5       0.001
  J75                  JUNCTION     0.000    0.025   267  01:28           0        39.9       0.002
  J76                  JUNCTION     0.000    0.024   255  00:26           0        39.8       0.001
  J77                  JUNCTION     0.000    0.024    35  14:23           0        39.9       0.002
  J78                  JUNCTION     0.119    0.131   268  00:00        47.5        74.7       0.001
  J79                  JUNCTION     0.000    0.027   267  01:40           0        50.7      -0.000
  J80                  JUNCTION     0.000    0.027   267  01:41           0        50.7       0.000
  J81                  JUNCTION     0.000    0.010   267  01:42           0        17.2       0.063
  J82                  JUNCTION     0.000    0.000     0  00:00           0           0       0.000 ltr
  J83                  JUNCTION     0.000    0.027   267  02:42           0        36.8       0.001
  J84                  JUNCTION     0.000    0.021   254  02:38           0        3.31      -0.006
  J85                  JUNCTION     0.008    0.008   267  23:41        3.31        3.31      -0.012
  J86                  JUNCTION     0.000    0.131   254  02:38           0         184       0.001
  J87                  JUNCTION     0.000    0.002   267  00:45           0      0.0486       0.074
  J88                  JUNCTION     0.000    0.033    22  19:27           0        90.2       0.000
  J89                  JUNCTION     0.000    0.040   354  17:07           0        90.7       0.007
  J90                  JUNCTION     0.000    0.008   354  01:30           0       0.669      -0.131
  J91                  JUNCTION     0.000    0.001   354  01:31           0      0.0269       2.839
  J92                  JUNCTION     0.000    0.004   354  01:31           0        0.21       0.038
  J93                  JUNCTION     0.000    0.001    60  13:45           0      0.0382       5.307
  J94                  JUNCTION     0.000    0.000     0  00:00           0           0       0.000 ltr
  J95                  JUNCTION     0.000    0.000     0  00:00           0           0       0.000 ltr
  J96                  JUNCTION     0.000    0.000     0  00:00           0           0       0.000 ltr
  J97                  JUNCTION     0.000    0.000     0  00:00           0           0       0.000 ltr
  J98                  JUNCTION     0.000    0.043   224  07:04           0        90.2       0.017
  J99                  JUNCTION     0.000    0.044   224  07:04           0        71.3       0.040
  O1                   OUTFALL      0.000    0.044   224  07:04           0        70.5       0.000
  
  
  **********************
  Node Surcharge Summary
  **********************
  
  Surcharging occurs when water rises above the top of the highest conduit.
  ---------------------------------------------------------------------
                                               Max. Height   Min. Depth
                                   Hours       Above Crown    Below Rim
  Node                 Type      Surcharged         Meters       Meters
  ---------------------------------------------------------------------
  J5                   JUNCTION       13.95          0.016        2.184
  J6                   JUNCTION       35.38          0.137        0.363
  J8                   JUNCTION       38.53          1.700        0.000
  J10                  JUNCTION       34.67          0.887        0.013
  J11                  JUNCTION       39.06          0.600        0.000
  J12                  JUNCTION     8466.97          1.400        0.000
  J18                  JUNCTION       40.81          0.176        1.624
  J20                  JUNCTION       43.78          0.075        2.325
  J21                  JUNCTION       45.82          0.300        0.000
  J22                  JUNCTION       43.85          1.038        1.162
  J23                  JUNCTION       39.56          1.197        0.003
  J26                  JUNCTION       40.29          0.285        0.915
  J29                  JUNCTION       39.45          0.168        0.532
  J32                  JUNCTION      213.97          0.581        0.619
  J34                  JUNCTION       88.95          0.800        0.000
  J35                  JUNCTION       98.30          0.701        0.399
  J36                  JUNCTION       46.35          0.565        0.335
  J37                  JUNCTION       45.00          0.348        0.852
  J38                  JUNCTION       39.45          0.120        1.980
  J45                  JUNCTION       43.42          0.076        1.324
  J46                  JUNCTION       41.13          0.009        1.191
  J47                  JUNCTION       41.00          0.000        0.000
  J57                  JUNCTION       45.46          0.000        0.000
  J65                  JUNCTION       58.77          0.100        0.000
  J66                  JUNCTION      141.15          0.500        0.000
  J67                  JUNCTION      143.96          0.500        0.000
  J68                  JUNCTION      371.72          0.000        0.000
  J70                  JUNCTION      173.36          0.000        0.000
  J74                  JUNCTION      259.77          0.000        0.000
  J77                  JUNCTION      310.97          0.000        0.000
  J78                  JUNCTION      238.73          0.000        0.000
  J81                  JUNCTION     8469.09          0.000        0.000
  J83                  JUNCTION       94.29          0.200        0.000
  J84                  JUNCTION        0.04          0.000        0.000
  J86                  JUNCTION      511.81          0.000        0.000
  J89                  JUNCTION      137.52          0.009        1.091
  J98                  JUNCTION      405.05          0.100        0.000
  J99                  JUNCTION      517.52          0.200        0.000
  
  
  *********************
  Node Flooding Summary
  *********************
  
  Flooding refers to all water that overflows a node, whether it ponds or not.
  --------------------------------------------------------------------------
                                                             Total   Maximum
                                 Maximum   Time of Max       Flood    Ponded
                        Hours       Rate    Occurrence      Volume     Depth
  Node                 Flooded       CMS   days hr:min    10^6 ltr    Meters
  --------------------------------------------------------------------------
  J8                     35.07     0.110    268  00:00      10.375     0.000
  J11                    36.21     0.067    268  00:00       7.465     0.000
  J12                   433.22     0.424    268  00:00     149.149     0.000
  J21                    43.59     0.109    268  00:00      14.240     0.000
  J34                    44.38     0.174    267  23:59      23.712     0.000
  J47                    41.00     0.037    268  00:00       4.561     0.000
  J57                    45.45     0.058    267  18:09       8.357     0.000
  J65                    46.20     0.155    267  04:31      23.614     0.000
  J66                     0.04     0.005    267  02:40       0.000     0.000
  J67                     0.06     0.035     60  08:17       0.001     0.000
  J68                   371.67     0.182    254  02:39     131.923     0.000
  J70                   173.32     0.125    268  00:00      25.044     0.000
  J74                   259.68     0.046    267  23:59      16.625     0.000
  J77                   310.89     0.012    254  06:18      12.632     0.000
  J78                   238.06     0.104    268  00:00      24.002     0.000
  J81                  3785.26     0.010    267  01:42      17.170     0.000
  J83                    44.56     0.008    267  02:42       0.888     0.000
  J84                     0.04     0.017    254  02:38       0.001     0.000
  J86                   511.56     0.098    254  02:38      94.209     0.000
  J98                   313.86     0.033    105  04:09      18.905     0.000
  J99                   307.35     0.014     60  13:45       0.778     0.000
  
  
  ***********************
  Outfall Loading Summary
  ***********************
  
  -----------------------------------------------------------
                         Flow       Avg       Max       Total
                         Freq      Flow      Flow      Volume
  Outfall Node           Pcnt       CMS       CMS    10^6 ltr
  -----------------------------------------------------------
  O1                    40.03     0.015     0.044      70.452
  -----------------------------------------------------------
  System                40.03     0.015     0.044      70.452
  
  
  ********************
  Link Flow Summary
  ********************
  
  -----------------------------------------------------------------------------
                                 Maximum  Time of Max   Maximum    Max/    Max/
                                  |Flow|   Occurrence   |Veloc|    Full    Full
  Link                 Type          CMS  days hr:min     m/sec    Flow   Depth
  -----------------------------------------------------------------------------
  C1                   CONDUIT     0.035   268  00:00      1.59    0.15    0.23
  C2                   CONDUIT     0.035   268  00:00      1.48    0.08    0.25
  C3                   CONDUIT     0.102   268  00:00      2.54    0.19    0.36
  C4                   CONDUIT     0.166   268  00:00      2.08    0.36    0.71
  C5                   CONDUIT     0.064   268  00:00      1.29    0.22    0.66
  C6                   CONDUIT     0.064   268  00:00      0.90    1.73    1.00
  C7                   CONDUIT     0.064   268  00:00      1.08    1.25    0.78
  C8                   CONDUIT     0.245   255  00:12      3.95    1.15    0.82
  C9                   CONDUIT     0.245   254  08:13      4.12    0.74    0.82
  C10                  CONDUIT     0.411   268  00:00      3.27    1.05    1.00
  C11                  CONDUIT     0.344   254  07:15      2.73    0.85    1.00
  C12                  CONDUIT     0.040   268  00:00      0.81    0.23    0.66
  C13                  CONDUIT     0.023   267  01:32      0.31    0.08    0.57
  C14                  CONDUIT     0.023   267  01:34      1.59    0.04    0.28
  C15                  CONDUIT     0.098   268  00:00      2.09    0.36    0.40
  C16                  CONDUIT     0.120   268  00:00      2.78    0.30    0.38
  C17                  CONDUIT     0.097   268  00:00      1.42    1.75    0.92
  C18                  CONDUIT     0.097   268  00:00      1.92    1.00    0.68
  C19                  CONDUIT     0.176   268  00:00      3.06    0.50    0.76
  C20                  CONDUIT     0.176   268  00:00      2.49    1.08    1.00
  C21                  CONDUIT     0.176   268  00:00      2.49    1.63    1.00
  C22                  CONDUIT     0.110   267  03:18      1.57    1.56    1.00
  C23                  CONDUIT     0.107   267  03:18      1.98    1.15    0.76
  C24                  CONDUIT     0.107   254  03:21      1.87    0.53    0.76
  C25                  CONDUIT     0.120   268  00:00      1.31    0.29    0.69
  C26                  CONDUIT     0.227   268  00:00      2.28    1.52    0.74
  C27                  CONDUIT     0.288   268  00:00      3.93    0.47    0.57
  C28                  CONDUIT     0.048   268  00:00      0.97    0.21    0.66
  C29                  CONDUIT     0.105   268  00:00      1.65    1.58    0.84
  C30                  CONDUIT     0.105   268  00:00      2.16    0.80    0.65
  C31                  CONDUIT     0.105   268  00:00      1.72    0.69    0.81
  C32                  CONDUIT     0.105   268  00:00      1.52    1.46    0.94
  C33                  CONDUIT     0.393   268  00:00      3.52    0.74    0.83
  C34                  CONDUIT     0.248   255  01:01      1.98    1.31    1.00
  C35                  CONDUIT     0.041   267  23:59      0.89    0.50    1.00
  C36                  CONDUIT     0.041   267  23:59      0.57    0.46    1.00
  C37                  CONDUIT     0.276   254  04:58      2.23    1.88    1.00
  C38                  CONDUIT     0.053   267  23:23      1.75    0.50    0.44
  C39                  CONDUIT     0.053   267  23:23      1.02    0.29    0.69
  C40                  CONDUIT     0.320   254  04:54      3.30    1.02    0.77
  C41                  CONDUIT     0.326   268  00:35      4.99    0.55    0.52
  C42                  CONDUIT     0.000     0  00:00      0.00    0.00    0.33
  C43                  CONDUIT     0.065   254  04:24      1.13    0.99    1.00
  C44                  CONDUIT     0.065   254  04:24      0.92    0.81    1.00
  C45                  CONDUIT     0.065   254  04:24      1.04    3.43    0.82
  C46                  CONDUIT     0.065   254  04:25      1.37    0.75    0.65
  C47                  CONDUIT     0.392   268  00:36      1.19    0.11    0.20
  C48                  CONDUIT     0.390   254  04:56      1.41    0.09    0.17
  C49                  CONDUIT     0.390   254  04:57      1.22    0.06    0.20
  C50                  CONDUIT     0.057   268  00:00      1.81    0.59    0.46
  C51                  CONDUIT     0.057   268  00:00      2.62    0.24    0.35
  C52                  CONDUIT     0.057   268  00:00      1.11    0.28    0.68
  C53                  CONDUIT     0.036   268  00:00      0.53    0.80    0.92
  C54                  CONDUIT     0.039   268  01:04      0.56    2.32    0.95
  C55                  CONDUIT     0.045   267  13:53      0.72    2.39    0.83
  C56                  CONDUIT     0.045   267  18:09      0.88    1.09    0.69
  C57                  CONDUIT     0.045   267  10:07      0.90    0.66    0.71
  C58                  CONDUIT     0.045   267  10:06      0.96    1.14    0.76
  C59                  CONDUIT     0.013   267  23:59      1.66    0.08    0.17
  C60                  CONDUIT     0.013   267  23:58      0.65    0.04    0.43
  C61                  CONDUIT     0.448   267  04:31      1.24    0.14    0.22
  C62                  CONDUIT     0.448   267  04:31      1.63    0.10    0.17
  C63                  CONDUIT     0.448   267  04:31      2.38    0.05    0.12
  C64                  CONDUIT     0.448   267  04:31      1.36    0.03    0.55
  C65                  CONDUIT     0.644   197  06:55      0.78    0.11    1.00
  C66                  CONDUIT     0.154   268  00:00      1.22    0.61    0.84
  C67                  CONDUIT     0.029   254  07:25      0.33    4.26    0.58
  C68                  CONDUIT     0.029    60  06:43      0.46    0.07    0.54
  C69                  CONDUIT     0.029   267  01:55      0.34    1.30    0.62
  C70                  CONDUIT     0.070   267  23:59      0.69    0.22    0.67
  C71                  CONDUIT     0.025   267  01:28      0.18    2.46    0.93
  C72                  CONDUIT     0.024   255  00:26      0.29    2.45    0.55
  C73                  CONDUIT     0.024    35  14:23      0.26    0.12    0.61
  C74                  CONDUIT     0.017   260  04:21      0.12    1.49    1.00
  C75                  CONDUIT     0.027   267  01:40      0.28    3.31    0.65
  C76                  CONDUIT     0.027   267  01:41      0.69    0.17    0.26
  C77                  CONDUIT     0.000     0  00:00      0.00    0.00    0.50
  C78                  CONDUIT     0.010   267  01:42      0.23    0.11    0.61
  C79                  CONDUIT     0.017   267  01:42      0.45    0.12    0.61
  C80                  CONDUIT     0.008   267  23:20      0.96    0.04    0.56
  C81                  CONDUIT     0.015   254  02:38      0.41    0.17    1.00
  C82                  CONDUIT     0.024   261  00:25      0.25    0.23    1.00
  C83                  CONDUIT     0.057    60  08:17      0.81    0.34    1.00
  C84                  CONDUIT     0.182   254  02:39      2.57    5.36    1.00
  C85                  CONDUIT     0.131   254  02:39      0.87    1.96    1.00
  C86                  CONDUIT     0.002   267  00:45      0.06    0.02    0.67
  C87                  CONDUIT     0.033    22  19:27      0.34    1.26    0.66
  C88                  CONDUIT     0.033    22  18:45      0.52    0.20    0.66
  C89                  CONDUIT     0.000     0  00:00      0.00    0.00    0.00
  C90                  CONDUIT     0.000     0  00:00      0.00    0.00    0.00
  C91                  CONDUIT     0.000     0  00:00      0.00    0.00    0.00
  C92                  CONDUIT     0.000     0  00:00      0.00    0.00    0.16
  C93                  CONDUIT     0.001    60  13:45      0.14    0.03    0.25
  C94                  CONDUIT     0.004   354  01:31      0.29    0.07    0.40
  C95                  CONDUIT     0.001   354  01:31      0.09    0.02    0.31
  C96                  CONDUIT     0.009   223  06:13      0.18    0.12    0.74
  C97                  CONDUIT     0.043   224  07:04      0.70    0.45    1.00
  C98                  CONDUIT     0.044   224  07:04      0.76    0.45    1.00
  C99                  CONDUIT     0.044   224  07:04      0.91    0.35    1.00
  
  
  ***************************
  Flow Classification Summary
  ***************************
  
  -------------------------------------------------------------------------------------
                      Adjusted    ---------- Fraction of Time in Flow Class ---------- 
                       /Actual         Up    Down  Sub   Sup   Up    Down  Norm  Inlet 
  Conduit               Length    Dry  Dry   Dry   Crit  Crit  Crit  Crit  Ltd   Ctrl  
  -------------------------------------------------------------------------------------
  C1                      1.00   0.03  0.00  0.00  0.75  0.22  0.00  0.00  0.31  0.00
  C2                      1.00   0.06  0.28  0.00  0.58  0.08  0.00  0.00  0.97  0.00
  C3                      1.00   0.03  0.03  0.00  0.55  0.38  0.00  0.00  0.75  0.00
  C4                      1.00   0.04  0.24  0.00  0.35  0.37  0.00  0.00  0.70  0.00
  C5                      1.00   0.03  0.00  0.00  0.93  0.04  0.00  0.00  0.70  0.00
  C6                      1.00   0.03  0.00  0.00  0.97  0.00  0.00  0.00  0.80  0.00
  C7                      1.00   0.03  0.00  0.00  0.97  0.00  0.00  0.00  0.39  0.00
  C8                      1.00   0.04  0.00  0.00  0.57  0.39  0.00  0.00  0.12  0.00
  C9                      1.00   0.13  0.27  0.00  0.32  0.28  0.00  0.00  0.83  0.00
  C10                     1.00   0.16  0.01  0.00  0.43  0.40  0.00  0.00  0.27  0.00
  C11                     1.00   0.03  0.51  0.00  0.46  0.00  0.00  0.00  0.96  0.00
  C12                     1.00   0.03  0.56  0.00  0.41  0.00  0.00  0.00  0.97  0.00
  C13                     1.00   0.03  0.00  0.00  0.97  0.00  0.00  0.00  0.43  0.00
  C14                     1.00   0.03  0.01  0.00  0.58  0.39  0.00  0.00  0.88  0.00
  C15                     1.00   0.08  0.04  0.00  0.49  0.39  0.00  0.00  0.23  0.00
  C16                     1.00   0.39  0.01  0.00  0.18  0.42  0.00  0.00  0.14  0.00
  C17                     1.00   0.03  0.00  0.00  0.97  0.00  0.00  0.00  0.42  0.00
  C18                     1.00   0.03  0.00  0.00  0.64  0.33  0.00  0.00  0.57  0.00
  C19                     1.00   0.03  0.00  0.00  0.57  0.40  0.00  0.00  0.93  0.00
  C20                     1.00   0.03  0.00  0.00  0.59  0.38  0.00  0.00  0.96  0.00
  C21                     1.00   0.03  0.00  0.00  0.92  0.05  0.00  0.00  0.92  0.00
  C22                     1.00   0.03  0.00  0.00  0.93  0.04  0.00  0.00  0.58  0.00
  C23                     1.00   0.03  0.00  0.00  0.63  0.34  0.00  0.00  0.51  0.00
  C24                     1.00   0.03  0.10  0.00  0.85  0.03  0.00  0.00  0.95  0.00
  C25                     1.00   0.03  0.53  0.00  0.37  0.06  0.00  0.00  0.97  0.00
  C26                     1.00   0.03  0.00  0.00  0.62  0.35  0.00  0.00  0.47  0.00
  C27                     1.00   0.06  0.00  0.00  0.50  0.44  0.00  0.00  0.89  0.00
  C28                     1.00   0.03  0.58  0.00  0.39  0.00  0.00  0.00  0.97  0.00
  C29                     1.00   0.03  0.00  0.00  0.97  0.00  0.00  0.00  0.46  0.00
  C30                     1.00   0.03  0.00  0.00  0.63  0.34  0.00  0.00  0.43  0.00
  C31                     1.00   0.03  0.00  0.00  0.73  0.23  0.00  0.00  0.97  0.00
  C32                     1.00   0.03  0.02  0.00  0.95  0.00  0.00  0.00  0.82  0.00
  C33                     1.00   0.04  0.03  0.00  0.53  0.40  0.00  0.00  0.91  0.00
  C34                     1.00   0.03  0.01  0.00  0.91  0.05  0.00  0.00  0.93  0.00
  C35                     1.00   0.03  0.00  0.00  0.92  0.05  0.00  0.00  0.28  0.00
  C36                     1.00   0.03  0.48  0.00  0.49  0.00  0.00  0.00  0.96  0.00
  C37                     1.00   0.03  0.00  0.00  0.73  0.24  0.00  0.00  0.27  0.00
  C38                     1.00   0.03  0.00  0.00  0.90  0.07  0.00  0.00  0.32  0.00
  C39                     1.00   0.28  0.38  0.00  0.35  0.00  0.00  0.00  0.97  0.00
  C40                     1.00   0.19  0.08  0.00  0.31  0.41  0.00  0.00  0.18  0.00
  C41                     1.00   0.28  0.03  0.00  0.26  0.43  0.00  0.00  0.30  0.00
  C42                     1.00   0.45  0.55  0.00  0.00  0.00  0.00  0.00  0.00  0.00
  C43                     1.00   0.03  0.00  0.00  0.97  0.00  0.00  0.00  0.55  0.00
  C44                     1.00   0.03  0.01  0.00  0.96  0.00  0.00  0.00  0.55  0.00
  C45                     1.00   0.03  0.00  0.00  0.97  0.00  0.00  0.00  0.54  0.00
  C46                     1.00   0.20  0.03  0.00  0.74  0.03  0.00  0.00  0.91  0.00
  C47                     1.00   0.40  0.04  0.00  0.55  0.00  0.00  0.00  0.54  0.00
  C48                     1.00   0.40  0.01  0.00  0.56  0.04  0.00  0.00  0.43  0.00
  C49                     1.00   0.35  0.05  0.00  0.60  0.00  0.00  0.00  0.95  0.00
  C50                     1.00   0.03  0.00  0.00  0.66  0.31  0.00  0.00  0.49  0.00
  C51                     1.00   0.44  0.00  0.00  0.18  0.38  0.00  0.00  0.43  0.00
  C52                     1.00   0.03  0.52  0.00  0.45  0.00  0.00  0.00  0.97  0.00
  C53                     1.00   0.03  0.00  0.00  0.97  0.00  0.00  0.00  0.94  0.00
  C54                     1.00   0.03  0.00  0.00  0.97  0.00  0.00  0.00  0.75  0.00
  C55                     1.00   0.03  0.00  0.00  0.97  0.00  0.00  0.00  0.51  0.00
  C56                     1.00   0.03  0.00  0.00  0.97  0.00  0.00  0.00  0.10  0.00
  C57                     1.00   0.03  0.00  0.00  0.97  0.00  0.00  0.00  0.89  0.00
  C58                     1.00   0.07  0.03  0.00  0.90  0.00  0.00  0.00  0.41  0.00
  C59                     1.00   0.04  0.00  0.00  0.67  0.29  0.00  0.00  0.04  0.00
  C60                     1.00   0.35  0.32  0.00  0.32  0.01  0.00  0.00  0.97  0.00
  C61                     1.00   0.33  0.02  0.00  0.65  0.00  0.00  0.00  0.63  0.00
  C62                     1.00   0.34  0.00  0.00  0.59  0.07  0.00  0.00  0.25  0.00
  C63                     1.00   0.34  0.02  0.00  0.24  0.39  0.00  0.00  0.14  0.00
  C64                     1.00   0.32  0.04  0.00  0.38  0.26  0.00  0.00  0.96  0.00
  C65                     1.00   0.03  0.29  0.00  0.68  0.00  0.00  0.00  0.94  0.00
  C66                     1.00   0.03  0.36  0.00  0.61  0.00  0.00  0.00  0.96  0.00
  C67                     1.00   0.03  0.00  0.00  0.97  0.00  0.00  0.00  0.00  0.00
  C68                     1.00   0.03  0.19  0.00  0.78  0.00  0.00  0.00  0.95  0.00
  C69                     1.00   0.03  0.00  0.00  0.97  0.00  0.00  0.00  0.00  0.00
  C70                     1.00   0.03  0.12  0.00  0.85  0.00  0.00  0.00  0.97  0.00
  C71                     1.00   0.03  0.00  0.00  0.97  0.00  0.00  0.00  0.59  0.00
  C72                     1.00   0.03  0.00  0.00  0.97  0.00  0.00  0.00  0.00  0.00
  C73                     1.00   0.03  0.04  0.00  0.93  0.00  0.00  0.00  0.97  0.00
  C74                     1.00   0.03  0.00  0.00  0.97  0.00  0.00  0.00  0.54  0.00
  C75                     1.00   0.03  0.00  0.00  0.97  0.00  0.00  0.00  0.00  0.00
  C76                     1.00   0.06  0.03  0.00  0.91  0.00  0.00  0.00  0.14  0.00
  C77                     1.00   0.03  0.97  0.00  0.00  0.00  0.00  0.00  0.00  0.00
  C78                     1.00   0.03  0.00  0.00  0.97  0.00  0.00  0.00  0.97  0.00
  C79                     1.00   0.05  0.05  0.00  0.91  0.00  0.00  0.00  0.92  0.00
  C80                     1.00   0.03  0.00  0.00  0.90  0.07  0.00  0.00  0.86  0.00
  C81                     1.00   0.05  0.60  0.00  0.35  0.00  0.00  0.00  0.95  0.00
  C82                     1.00   0.03  0.02  0.00  0.95  0.00  0.00  0.00  0.93  0.00
  C83                     1.00   0.03  0.95  0.00  0.02  0.00  0.00  0.00  0.81  0.00
  C84                     1.00   0.03  0.83  0.00  0.14  0.00  0.00  0.00  0.80  0.00
  C85                     1.00   0.03  0.00  0.00  0.97  0.00  0.00  0.00  0.92  0.00
  C86                     1.00   0.03  0.90  0.00  0.07  0.00  0.00  0.00  0.87  0.00
  C87                     1.00   0.03  0.00  0.00  0.97  0.00  0.00  0.00  0.00  0.00
  C88                     1.00   0.03  0.00  0.00  0.97  0.00  0.00  0.00  0.97  0.00
  C89                     1.00   1.00  0.00  0.00  0.00  0.00  0.00  0.00  0.00  0.00
  C90                     1.00   1.00  0.00  0.00  0.00  0.00  0.00  0.00  0.00  0.00
  C91                     1.00   1.00  0.00  0.00  0.00  0.00  0.00  0.00  0.00  0.00
  C92                     1.00   0.50  0.50  0.00  0.00  0.00  0.00  0.00  0.00  0.00
  C93                     1.00   0.04  0.01  0.00  0.95  0.00  0.00  0.00  0.93  0.00
  C94                     1.00   0.48  0.02  0.00  0.50  0.00  0.00  0.00  0.92  0.00
  C95                     1.00   0.90  0.04  0.00  0.05  0.00  0.00  0.00  0.93  0.00
  C96                     1.00   0.03  0.87  0.00  0.10  0.00  0.00  0.00  0.92  0.00
  C97                     1.00   0.03  0.00  0.00  0.97  0.00  0.00  0.00  0.67  0.00
  C98                     1.00   0.03  0.04  0.00  0.93  0.00  0.00  0.00  0.61  0.00
  C99                     1.00   0.02  0.00  0.00  0.93  0.04  0.00  0.00  0.04  0.00
  
  
  *************************
  Conduit Surcharge Summary
  *************************
  
  ----------------------------------------------------------------------------
                                                           Hours        Hours 
                         --------- Hours Full --------   Above Full   Capacity
  Conduit                Both Ends  Upstream  Dnstream   Normal Flow   Limited
  ----------------------------------------------------------------------------
  C4                          0.01      0.01     34.67      0.01         0.01
  C5                          0.01      0.01     35.37      0.01         0.01
  C6                         13.95     35.37     13.95     41.56        13.95
  C7                          0.01     13.95      0.01     36.27         0.01
  C8                          0.01     38.53      0.01     37.88         0.01
  C9                          0.01      0.01     36.71      0.01         0.01
  C10                        34.67     34.67     39.06     32.17        32.18
  C11                        39.06     39.06   8466.97      0.01         0.01
  C12                         0.01      0.01   8468.83      0.01         0.01
  C13                         0.01      0.01   8463.42      0.01         0.01
  C17                         0.01     40.30      0.01     42.31         0.01
  C18                         0.01      0.01      0.01     11.45         0.01
  C19                         0.01      0.01     39.56      0.01         0.01
  C20                        39.56     39.56     43.85     31.32        31.32
  C21                        43.85     43.85     45.82     41.59        41.59
  C22                        43.78     45.82     43.78     57.25        43.78
  C23                         0.01     43.78      0.01     44.88         0.01
  C24                         0.01      0.01     45.20      0.01         0.01
  C25                         0.01      0.01     40.81      0.01         0.01
  C26                         0.01     40.81      0.01     45.39         0.01
  C28                         0.01      0.01    213.90      0.01         0.01
  C29                         0.01      0.01    213.90     42.18         0.01
  C31                         0.01      0.01     39.45      0.01         0.01
  C32                         0.01     39.45      0.01     41.40         0.01
  C33                         0.01      0.01     88.95      0.01         0.01
  C34                        88.95     88.95     98.30     46.42        46.42
  C35                        45.00     45.00     46.35      0.01         0.01
  C36                        46.35     46.35    156.00      0.01         0.01
  C37                        39.45     98.30     39.45    148.72        39.45
  C39                         0.01      0.01     45.16      0.01         0.01
  C40                         0.01     39.45      0.01      1.63         0.01
  C43                        41.00     41.00     41.13      0.01         0.01
  C44                        41.13     41.13     43.42      0.01         0.01
  C45                         0.01     43.42      0.01    167.84         0.01
  C52                         0.01      0.01     45.45      0.01         0.01
  C53                         0.01      0.01     45.45      0.01         0.01
  C54                         0.01     45.45      0.01    179.39         0.01
  C55                         0.01      0.01      0.01    178.69         0.01
  C56                         0.01      0.01      0.01     45.67         0.01
  C58                         0.01      0.01      0.01     45.90         0.01
  C64                         0.01      0.01     58.77      0.01         0.01
  C65                        58.77     58.77    141.07      0.01         0.01
  C66                         0.01      0.01    173.32      0.01         0.01
  C67                         0.01    173.32      0.01    429.16         0.01
  C69                         0.01      0.01      0.01    214.76         0.01
  C70                         0.01      0.01    259.69      0.01         0.01
  C71                         0.01    259.69      0.01    391.14         0.01
  C72                         0.01      0.01      0.01    396.87         0.01
  C73                         0.01      0.01    310.90      0.01         0.01
  C74                       238.10    310.90    238.10    368.46         0.01
  C75                         0.01    238.10      0.01    488.97         0.01
  C78                         0.01      0.01   8469.09      0.01         0.01
  C79                         0.01      0.01     94.28      0.01         0.01
  C80                         0.01      0.01      0.04      0.01         0.01
  C81                         0.04      0.04     94.28      0.01         0.01
  C82                        94.28     94.28    390.92      0.01         0.01
  C83                       143.63    143.63   7314.55      0.01         0.01
  C84                       371.68    371.68    390.92    302.81         0.01
  C85                       390.92    390.92    511.59    390.87       390.90
  C86                         0.01      0.01    511.59      0.01         0.01
  C87                         0.01    511.59      0.01    541.62         0.01
  C88                         0.01      0.01    400.79      0.01         0.01
  C96                         0.01      0.01    400.79      0.01         0.01
  C97                       137.46    137.46    404.97      0.01         0.01
  C98                       404.98    404.98    517.38      0.01         0.01
  C99                       517.38    517.38   2467.10      0.01         0.01
  

  Analysis begun on:  Wed Jun 25 15:38:17 2025
  Analysis ended on:  Wed Jun 25 15:40:02 2025
  Total elapsed time: 00:01:45