
  EPA STORM WATER MANAGEMENT MODEL - VERSION 5.2 (Build 5.2.4)
  ------------------------------------------------------------

  
  ****************
  Analysis Options
  ****************
  Flow Units ............... CMS
  Process Models:
    Rainfall/Runoff ........ YES
    RDII ................... NO
    Snowmelt ............... NO
    Groundwater ............ NO
    Flow Routing ........... YES
    Ponding Allowed ........ NO
    Water Quality .......... NO
  Infiltration Method ...... GREEN_AMPT
  Flow Routing Method ...... DYNWAVE
  Surcharge Method ......... EXTRAN
  Starting Date ............ 01/01/2018 00:00:00
  Ending Date .............. 01/01/2019 01:00:00
  Antecedent Dry Days ...... 0.0
  Report Time Step ......... 00:01:00
  Wet Time Step ............ 00:01:00
  Dry Time Step ............ 00:01:00
  Routing Time Step ........ 30.00 sec
  Variable Time Step ....... YES
  Maximum Trials ........... 8
  Number of Threads ........ 1
  Head Tolerance ........... 0.001500 m
  
  
  **************************        Volume         Depth
  Runoff Quantity Continuity     hectare-m            mm
  **************************     ---------       -------
  Total Precipitation ......       225.235      1160.526
  Evaporation Loss .........         0.000         0.000
  Infiltration Loss ........       119.419       615.308
  Surface Runoff ...........       105.475       543.459
  Final Storage ............         0.416         2.141
  Continuity Error (%) .....        -0.033
  
  
  **************************        Volume        Volume
  Flow Routing Continuity        hectare-m      10^6 ltr
  **************************     ---------     ---------
  Dry Weather Inflow .......         0.000         0.000
  Wet Weather Inflow .......       105.465      1054.661
  Groundwater Inflow .......         0.000         0.000
  RDII Inflow ..............         0.000         0.000
  External Inflow ..........         0.000         0.000
  External Outflow .........         6.156        61.557
  Flooding Loss ............        99.359       993.603
  Evaporation Loss .........         0.000         0.000
  Exfiltration Loss ........         0.000         0.000
  Initial Stored Volume ....         0.000         0.000
  Final Stored Volume ......         0.004         0.045
  Continuity Error (%) .....        -0.052
  
  
  *************************
  Highest Continuity Errors
  *************************
  Node J81 (-1.17%)
  
  
  ***************************
  Time-Step Critical Elements
  ***************************
  Link C41 (21.78%)
  Link C79 (3.85%)
  Link C97 (2.76%)
  Link C88 (2.32%)
  Link C19 (1.69%)
  
  
  ********************************
  Highest Flow Instability Indexes
  ********************************
  Link C48 (4)
  Link C65 (2)
  Link C49 (2)
  Link C83 (1)
  
  
  *********************************
  Most Frequent Nonconverging Nodes
  *********************************
  Node O1 (0.42%)
  Node J23 (0.09%)
  Node J67 (0.06%)
  Node J36 (0.05%)
  Node J37 (0.05%)
  
  
  *************************
  Routing Time Step Summary
  *************************
  Minimum Time Step           :     0.50 sec
  Average Time Step           :    22.84 sec
  Maximum Time Step           :    30.00 sec
  % of Time in Steady State   :     0.00
  Average Iterations per Step :     2.10
  % of Steps Not Converging   :     0.42
  Time Step Frequencies       :
     30.000 - 13.228 sec      :    73.23 %
     13.228 -  5.833 sec      :    16.13 %
      5.833 -  2.572 sec      :    10.29 %
      2.572 -  1.134 sec      :     0.34 %
      1.134 -  0.500 sec      :     0.01 %
  
  
  ***************************
  Subcatchment Runoff Summary
  ***************************
  
  ------------------------------------------------------------------------------------------------------------------------------
                            Total      Total      Total      Total     Imperv       Perv      Total       Total     Peak  Runoff
                           Precip      Runon       Evap      Infil     Runoff     Runoff     Runoff      Runoff   Runoff   Coeff
  Subcatchment                 mm         mm         mm         mm         mm         mm         mm    10^6 ltr      CMS
  ------------------------------------------------------------------------------------------------------------------------------
  W1                      1160.53       0.00       0.00     632.12      15.65     510.92     526.57       20.48     0.50   0.454
  W2                      1160.53       0.00       0.00     622.79      31.31     504.62     535.93       39.07     0.95   0.462
  W3                      1160.53       0.00       0.00     623.93      22.05     512.74     534.79       37.44     0.93   0.461
  W4                      1160.53    1731.10       0.00     744.20      43.61    2101.91    2145.52      185.59     2.50   0.742
  W5                      1160.53       0.00       0.00     626.26       9.40     523.04     532.44       36.69     0.95   0.459
  W6                      1160.53       0.00       0.00     612.76      16.99     529.02     546.01       24.24     0.66   0.470
  W7                      1160.53       0.00       0.00     587.94      23.37     547.59     570.96       47.16     1.42   0.492
  W8                      1160.53       0.00       0.00     607.56      12.02     539.20     551.23       13.39     0.38   0.475
  W9                      1160.53       0.00       0.00     600.56      32.79     525.46     558.25       59.34     1.62   0.481
  W10                     1160.53       0.00       0.00     600.26      32.79     525.76     558.55       48.31     1.32   0.481
  W11                     1160.53       0.00       0.00     581.28       9.67     567.94     577.61       38.99     1.26   0.498
  W12                     1160.53       0.00       0.00     586.38      21.99     550.55     572.53       25.13     0.76   0.493
  W13                     1160.53       0.00       0.00     618.99       4.02     535.64     539.66        4.53     0.12   0.465
  W14                     1160.53       0.00       0.00     577.83      24.48     556.67     581.14       25.92     0.81   0.501
  W15                     1160.53       0.00       0.00     599.42      14.03     545.38     559.41       40.95     1.20   0.482
  W16                     1160.53    1058.10       0.00     626.39      42.18    1548.42    1590.60       61.56     1.63   0.717
  W17                     1160.53       0.00       0.00     560.95       5.64     592.23     597.87        7.05     0.25   0.515
  W18                     1160.53       0.00       0.00     561.23      26.70     571.20     597.90       37.49     1.25   0.515
  W19                     1160.53       0.00       0.00     583.34       0.95     574.22     575.17       33.36     1.09   0.496
  W20                     1160.53       0.00       0.00     586.49      10.83     561.56     572.39       30.16     0.95   0.493
  W21                     1160.53       0.00       0.00     625.22      23.20     510.29     533.50       45.13     1.11   0.460
  W22                     1160.53     527.88       0.00     659.26      60.32     966.94    1027.26       87.83     1.76   0.608
  W23                     1160.53       0.00       0.00     582.79      29.88     546.26     576.14       35.95     1.08   0.496
  W24                     1160.53       0.00       0.00     601.73      19.94     537.15     557.09       22.40     0.64   0.480
  W25                     1160.53    1173.86       0.00     737.61      32.61    1562.06    1594.68      149.74     2.29   0.683
  W26                     1160.53       0.00       0.00     544.63       6.98     607.30     614.28        8.78     0.32   0.529
  W27                     1160.53       0.00       0.00     536.09       5.71     617.02     622.74        5.73     0.22   0.537
  W28                     1160.53       0.00       0.00    1154.75       0.00       0.00       0.00        0.00     0.00   0.000
  W29                     1160.53       0.00       0.00    1152.78       0.00       0.00       0.00        0.00     0.00   0.000
  W30                     1160.53       0.00       0.00     554.09      21.56     583.56     605.13       23.72     0.82   0.521
  W31                     1160.53       0.00       0.00    1156.03       0.00       0.00       0.00        0.00     0.00   0.000
  W32                     1160.53       0.00       0.00    1155.56       0.00       0.00       0.00        0.00     0.00   0.000
  W33                     1160.53       0.00       0.00     559.56      74.40     525.00     599.40      100.64     2.96   0.516
  W34                     1160.53       0.00       0.00     535.31      27.16     597.05     624.21       27.84     1.01   0.538
  W35                     1160.53       0.00       0.00     576.64      40.44     541.86     582.30       76.17     2.29   0.502
  
  
  ******************
  Node Depth Summary
  ******************
  
  ---------------------------------------------------------------------------------
                                 Average  Maximum  Maximum  Time of Max    Reported
                                   Depth    Depth      HGL   Occurrence   Max Depth
  Node                 Type       Meters   Meters   Meters  days hr:min      Meters
  ---------------------------------------------------------------------------------
  J1                   JUNCTION     0.02     4.50    53.45   254  18:47        4.50
  J2                   JUNCTION     0.01     1.49    49.02   267  23:35        1.28
  J3                   JUNCTION     0.01     1.00    45.60   254  18:25        1.00
  J4                   JUNCTION     0.02     1.45    41.36   254  18:25        1.40
  J5                   JUNCTION     0.03     1.22    41.29   254  18:01        1.03
  J6                   JUNCTION     0.04     0.80    40.93    35  03:29        0.80
  J7                   JUNCTION     0.01     1.50    45.36   254  18:24        1.50
  J8                   JUNCTION     0.07     2.00    50.97    60  16:07        2.00
  J9                   JUNCTION     0.02     0.19    45.67   267  22:40        0.19
  J10                  JUNCTION     0.05     1.30    38.18    35  03:41        1.30
  J11                  JUNCTION     0.05     1.00    35.05    35  03:35        1.00
  J12                  JUNCTION     0.12     1.00    32.98    22  18:52        1.00
  J13                  JUNCTION     0.02     1.50    34.91   197  20:30        1.50
  J14                  JUNCTION     0.03     0.17    32.06    35  02:56        0.17
  J15                  JUNCTION     0.05     0.90    27.83    35  03:29        0.90
  J16                  JUNCTION     0.04     1.30    26.81   254  18:24        1.30
  J17                  JUNCTION     0.05     2.00    24.34   254  18:01        1.75
  J18                  JUNCTION     0.13     2.20    22.27   197  20:12        2.20
  J19                  JUNCTION     0.04     1.21    22.55   248  22:57        0.99
  J20                  JUNCTION     0.04     0.78    22.42   254  18:04        0.75
  J21                  JUNCTION     0.05     0.60    22.44    22  16:25        0.60
  J22                  JUNCTION     0.06     1.59    23.87   260  16:57        1.41
  J23                  JUNCTION     0.05     1.50    24.78    35  03:22        1.50
  J24                  JUNCTION     0.03     4.00    30.56   254  18:26        4.00
  J25                  JUNCTION     0.04     2.62    29.68   254  19:16        2.61
  J26                  JUNCTION     0.05     1.50    28.73    35  03:33        1.50
  J27                  JUNCTION     0.04     2.40    22.27   254  18:27        2.40
  J28                  JUNCTION     0.06     1.20    16.22    35  03:35        1.20
  J29                  JUNCTION     0.05     1.00    16.22    35  03:03        1.00
  J30                  JUNCTION     0.03     1.15    17.67   275  03:19        0.95
  J31                  JUNCTION     0.02     1.04    18.45   202  06:59        0.80
  J32                  JUNCTION     0.25     1.50    18.71    35  03:23        1.50
  J33                  JUNCTION     0.01     2.00    21.79   197  20:24        2.00
  J34                  JUNCTION     0.13     1.20    12.99    22  16:14        1.20
  J35                  JUNCTION     0.13     1.36    12.86   260  17:27        1.35
  J36                  JUNCTION     0.08     1.20    12.99    22  16:15        1.20
  J37                  JUNCTION     0.05     1.50    13.59    22  16:15        1.50
  J38                  JUNCTION     0.06     1.14    12.36   254  18:05        1.14
  J39                  JUNCTION     0.01     1.00    13.81   260  17:34        1.00
  J40                  JUNCTION     0.02     1.50    14.61   197  20:12        1.50
  J41                  JUNCTION     0.03     0.29    10.04   254  18:56        0.29
  J42                  JUNCTION     0.03     0.25     6.49   254  18:56        0.25
  J43                  JUNCTION     0.00     0.00     9.75     0  00:00        0.00
  J44                  JUNCTION     0.02     0.20     6.64   229  22:19        0.20
  J45                  JUNCTION     0.04     0.46     6.91   229  22:18        0.43
  J46                  JUNCTION     0.03     0.46     7.11   254  18:01        0.39
  J47                  JUNCTION     0.03     0.30     7.10    35  03:03        0.30
  J48                  JUNCTION     0.02     0.21     6.35   254  18:56        0.21
  J49                  JUNCTION     0.02     0.18     6.13   254  18:57        0.18
  J50                  JUNCTION     0.03     0.33     5.98   254  18:57        0.33
  J51                  JUNCTION     0.00     0.20     8.35   254  18:47        0.20
  J52                  JUNCTION     0.01     1.50    10.15   254  18:44        1.50
  J53                  JUNCTION     0.03     0.34     6.03   254  18:57        0.34
  J54                  JUNCTION     0.02     0.28     6.06   254  18:57        0.28
  J55                  JUNCTION     0.03     0.28     6.10   254  18:57        0.28
  J56                  JUNCTION     0.03     0.31     6.14   197  20:10        0.31
  J57                  JUNCTION     0.03     0.30     6.14    22  16:12        0.30
  J58                  JUNCTION     0.02     0.30     6.25    35  03:13        0.30
  J59                  JUNCTION     0.01     0.24     8.23   197  20:26        0.24
  J60                  JUNCTION     0.01     0.21    11.33   197  20:32        0.21
  J61                  JUNCTION     0.03     2.00    13.63   197  20:10        2.00
  J62                  JUNCTION     0.03     0.29     5.85   254  18:57        0.29
  J63                  JUNCTION     0.02     0.19     5.55   254  18:57        0.19
  J64                  JUNCTION     0.01     0.13     4.78   254  18:57        0.13
  J65                  JUNCTION     0.11     1.00     3.51    22  16:26        1.00
  J66                  JUNCTION     0.19     1.40     3.51    22  16:27        1.40
  J67                  JUNCTION     0.08     0.80     3.51    22  16:26        0.80
  J68                  JUNCTION     0.06     0.30     2.45    22  16:09        0.30
  J69                  JUNCTION     0.02     0.30    32.78    35  03:33        0.30
  J70                  JUNCTION     0.05     0.30    26.21    22  14:57        0.30
  J71                  JUNCTION     0.01     0.05    25.95   134  21:56        0.05
  J72                  JUNCTION     0.05     0.30    16.12   197  20:13        0.30
  J73                  JUNCTION     0.01     0.30    16.09   197  20:14        0.30
  J74                  JUNCTION     0.05     0.30     8.72    22  15:04        0.30
  J75                  JUNCTION     0.05     0.26     8.67   260  17:15        0.26
  J76                  JUNCTION     0.01     0.07     8.47   260  17:19        0.07
  J77                  JUNCTION     0.06     0.30     6.48    22  15:07        0.30
  J78                  JUNCTION     0.06     0.30     6.47    22  16:03        0.30
  J79                  JUNCTION     0.01     0.08     6.25    41  15:33        0.08
  J80                  JUNCTION     0.05     0.40     3.55    22  16:30        0.40
  J81                  JUNCTION     0.03     0.30     3.55    22  16:28        0.30
  J82                  JUNCTION     0.00     0.00     4.84     0  00:00        0.00
  J83                  JUNCTION     0.06     0.50     3.54    22  16:27        0.50
  J84                  JUNCTION     0.03     0.30     3.55    22  16:27        0.30
  J85                  JUNCTION     0.00     0.24     5.08   254  18:47        0.23
  J86                  JUNCTION     0.08     0.30     2.02    22  15:10        0.30
  J87                  JUNCTION     0.02     0.15     2.07   260  17:06        0.15
  J88                  JUNCTION     0.02     0.09     1.77    41  05:55        0.09
  J89                  JUNCTION     0.08     0.45     0.98   197  20:20        0.45
  J90                  JUNCTION     0.01     0.15     0.94   254  16:25        0.15
  J91                  JUNCTION     0.00     0.05     0.94    93  18:44        0.05
  J92                  JUNCTION     0.01     0.10     0.94   146  14:55        0.10
  J93                  JUNCTION     0.00     0.06     0.95   146  14:56        0.06
  J94                  JUNCTION     0.00     0.00     1.67     0  00:00        0.00
  J95                  JUNCTION     0.00     0.00     2.07     0  00:00        0.00
  J96                  JUNCTION     0.00     0.00     2.07     0  00:00        0.00
  J97                  JUNCTION     0.00     0.00     2.17     0  00:00        0.00
  J98                  JUNCTION     0.09     0.50     0.92    22  18:58        0.50
  J99                  JUNCTION     0.11     0.60     0.92    22  19:00        0.60
  O1                   OUTFALL      0.30     1.97     2.19   299  17:59        1.97
  
  
  *******************
  Node Inflow Summary
  *******************
  
  -------------------------------------------------------------------------------------------------
                                  Maximum  Maximum                  Lateral       Total        Flow
                                  Lateral    Total  Time of Max      Inflow      Inflow     Balance
                                   Inflow   Inflow   Occurrence      Volume      Volume       Error
  Node                 Type           CMS      CMS  days hr:min    10^6 ltr    10^6 ltr     Percent
  -------------------------------------------------------------------------------------------------
  J1                   JUNCTION     0.499    0.499   254  18:56        20.5        20.5      -0.016
  J2                   JUNCTION     0.000    0.440   254  19:06           0        20.4       0.032
  J3                   JUNCTION     0.950    1.390   254  18:56        39.1        59.5      -0.011
  J4                   JUNCTION     0.000    0.518   267  23:08           0        82.4      -0.004
  J5                   JUNCTION     0.000    0.088   275  03:22           0        28.3       0.024
  J6                   JUNCTION     0.000    0.372   254  19:16           0          35      -0.005
  J7                   JUNCTION     0.935    0.935   254  18:56        37.4        37.4      -0.010
  J8                   JUNCTION     2.502    2.502   268  00:20         186         186      -0.004
  J9                   JUNCTION     0.000    0.245    60  16:29           0         136       0.002
  J10                  JUNCTION     0.000    0.706   268  01:01           0         218      -0.002
  J11                  JUNCTION     0.000    0.412    35  04:11           0         207      -0.003
  J12                  JUNCTION     0.946    1.453   254  18:56        36.7         257      -0.006
  J13                  JUNCTION     0.656    0.656   254  18:56        24.2        24.2      -0.030
  J14                  JUNCTION     0.000    0.191   313  01:14           0         178       0.005
  J15                  JUNCTION     1.417    1.608   254  18:56        47.2         226      -0.004
  J16                  JUNCTION     0.379    0.611   254  18:56        13.4         226      -0.001
  J17                  JUNCTION     0.000    0.366   254  18:25           0         225      -0.001
  J18                  JUNCTION     0.000    0.431   254  18:04           0         289      -0.009
  J19                  JUNCTION     0.000    0.110   260  16:58           0        63.7      -0.008
  J20                  JUNCTION     0.000    0.118   260  16:57           0        63.7      -0.001
  J21                  JUNCTION     0.764    0.940   254  18:56        25.1         100      -0.009
  J22                  JUNCTION     0.000    0.176   267  22:09           0          75      -0.004
  J23                  JUNCTION     0.000    0.464   254  18:39           0        86.7      -0.011
  J24                  JUNCTION     1.325    1.325   254  18:56        48.3        90.6      -0.004
  J25                  JUNCTION     0.000    0.134   229  22:17           0        43.7       0.023
  J26                  JUNCTION     1.624    1.753   254  18:56        59.3        60.7      -0.020
  J27                  JUNCTION     1.257    1.259   254  18:56          39         324       0.002
  J28                  JUNCTION     0.000    0.686   254  18:33           0         355      -0.005
  J29                  JUNCTION     0.000    0.130   248  22:57           0        46.5      -0.007
  J30                  JUNCTION     0.000    0.144   260  17:01           0        46.5      -0.006
  J31                  JUNCTION     0.000    0.159   275  03:19           0        46.5      -0.006
  J32                  JUNCTION     1.085    1.332   254  18:56        35.9        62.9      -0.018
  J33                  JUNCTION     0.948    0.948   254  18:56        30.2        30.2       0.001
  J34                  JUNCTION     0.000    0.534   197  21:17           0         351      -0.006
  J35                  JUNCTION     0.000    0.295   197  20:02           0         268      -0.007
  J36                  JUNCTION     0.000    0.115   197  20:16           0        21.5      -0.063
  J37                  JUNCTION     0.813    0.813   254  18:56        25.9        25.9      -0.052
  J38                  JUNCTION     0.000    0.374   254  18:56           0         295      -0.001
  J39                  JUNCTION     0.000    0.172   254  18:56           0        27.8      -0.006
  J40                  JUNCTION     1.093    1.093   254  18:56        33.4        33.4      -0.002
  J41                  JUNCTION     0.124    0.498   254  18:56        4.53         300       0.001
  J42                  JUNCTION     0.000    0.562   254  18:56           0         337      -0.002
  J43                  JUNCTION     0.000    0.000     0  00:00           0           0       0.000 ltr
  J44                  JUNCTION     0.000    0.067   229  22:19           0        36.7       0.000
  J45                  JUNCTION     0.000    0.068   254  18:01           0        36.7      -0.001
  J46                  JUNCTION     0.000    0.080   275  03:18           0        36.7      -0.001
  J47                  JUNCTION     1.628    1.628   254  19:01        61.6        61.6      -0.006
  J48                  JUNCTION     0.000    0.562   254  18:56           0         337       0.002
  J49                  JUNCTION     0.000    0.562   254  18:56           0         337      -0.001
  J50                  JUNCTION     0.000    0.891   254  18:57           0         374      -0.001
  J51                  JUNCTION     0.000    0.284   254  18:47           0        8.75       0.004
  J52                  JUNCTION     0.319    0.319   254  18:47        8.78        8.78      -0.003
  J53                  JUNCTION     0.000    0.053   254  18:04           0        28.9      -0.003
  J54                  JUNCTION     0.000    0.054   275  03:22           0        28.9      -0.002
  J55                  JUNCTION     0.000    0.054   275  03:22           0        28.9       0.001
  J56                  JUNCTION     0.247    0.247   254  18:55        7.05        29.9       0.004
  J57                  JUNCTION     0.000    0.241   254  19:07           0        46.9       0.026
  J58                  JUNCTION     0.819    0.819   254  18:55        23.7        23.7      -0.042
  J59                  JUNCTION     0.000    0.196   197  20:17           0        31.3       0.001
  J60                  JUNCTION     0.000    0.196   254  19:45           0        31.3       0.009
  J61                  JUNCTION     1.249    1.249   254  18:55        37.5        37.5      -0.021
  J62                  JUNCTION     0.000    0.891   254  18:57           0         374       0.000
  J63                  JUNCTION     0.000    0.891   254  18:57           0         374      -0.001
  J64                  JUNCTION     0.000    0.891   254  18:57           0         374       0.001
  J65                  JUNCTION     0.000    0.891   254  18:58           0         375      -0.017
  J66                  JUNCTION     0.000    0.744   260  17:06           0         348      -0.049
  J67                  JUNCTION     0.000    0.058   197  20:11           0       0.256      -6.366
  J68                  JUNCTION     0.000    0.182   171  06:48           0         164      -0.003
  J69                  JUNCTION     2.960    2.960   254  18:56         101         101      -0.001
  J70                  JUNCTION     0.000    0.253    60  15:38           0        77.5      -0.000
  J71                  JUNCTION     0.000    0.029   198  04:39           0        31.5       0.002
  J72                  JUNCTION     0.000    0.029   134  21:56           0        31.5       0.003
  J73                  JUNCTION     1.007    1.029   254  18:47        27.8        59.2       0.003
  J74                  JUNCTION     0.000    0.308   197  20:17           0        56.4      -0.001
  J75                  JUNCTION     0.000    0.032   275  00:03           0        29.8       0.009
  J76                  JUNCTION     0.000    0.024   260  17:16           0        29.8       0.001
  J77                  JUNCTION     0.000    0.038   225  21:50           0          30       0.009
  J78                  JUNCTION     2.291    2.302   254  18:56        76.2        95.9      -0.004
  J79                  JUNCTION     0.000    0.027   328  03:59           0        37.7       0.002
  J80                  JUNCTION     0.000    0.060   254  18:05           0        37.9      -0.023
  J81                  JUNCTION     0.000    0.042   254  18:06           0       0.258      -1.158
  J82                  JUNCTION     0.000    0.000     0  00:00           0           0       0.000 ltr
  J83                  JUNCTION     0.000    0.070   197  20:11           0        38.8      -0.029
  J84                  JUNCTION     0.000    0.216   254  18:47           0        5.75      -0.035
  J85                  JUNCTION     0.216    0.216   254  18:47        5.73        5.73      -0.032
  J86                  JUNCTION     0.000    0.139   260  17:09           0         184       0.000
  J87                  JUNCTION     0.000    0.016   260  17:05           0       0.226       0.293
  J88                  JUNCTION     0.000    0.033    41  05:55           0        79.5      -0.001
  J89                  JUNCTION     0.000    0.041   335  14:29           0        79.8      -0.002
  J90                  JUNCTION     0.000    0.022   197  20:20           0        0.55      -0.104
  J91                  JUNCTION     0.000    0.003   283  16:45           0      0.0284       2.453
  J92                  JUNCTION     0.000    0.008   254  16:23           0       0.175       0.153
  J93                  JUNCTION     0.000    0.002   146  14:55           0      0.0328       5.416
  J94                  JUNCTION     0.000    0.000     0  00:00           0           0       0.000 ltr
  J95                  JUNCTION     0.000    0.000     0  00:00           0           0       0.000 ltr
  J96                  JUNCTION     0.000    0.000     0  00:00           0           0       0.000 ltr
  J97                  JUNCTION     0.000    0.000     0  00:00           0           0       0.000 ltr
  J98                  JUNCTION     0.000    0.044   330  09:21           0        79.5       0.002
  J99                  JUNCTION     0.000    0.048   329  21:06           0        62.3      -0.006
  O1                   OUTFALL      0.000    0.049   329  21:05           0        61.6       0.000
  
  
  **********************
  Node Surcharge Summary
  **********************
  
  Surcharging occurs when water rises above the top of the highest conduit.
  ---------------------------------------------------------------------
                                               Max. Height   Min. Depth
                                   Hours       Above Crown    Below Rim
  Node                 Type      Surcharged         Meters       Meters
  ---------------------------------------------------------------------
  J1                   JUNCTION        2.35          4.100        0.000
  J2                   JUNCTION        0.90          1.089        1.011
  J3                   JUNCTION        3.46          0.600        0.000
  J4                   JUNCTION        5.23          1.050        0.750
  J5                   JUNCTION       32.33          0.923        1.277
  J6                   JUNCTION       41.18          0.500        0.000
  J7                   JUNCTION        3.80          1.200        0.000
  J8                   JUNCTION       54.99          1.700        0.000
  J10                  JUNCTION       40.51          0.900        0.000
  J11                  JUNCTION       55.28          0.600        0.000
  J12                  JUNCTION      193.10          0.600        0.000
  J13                  JUNCTION        6.79          1.200        0.000
  J15                  JUNCTION       32.09          0.500        0.000
  J16                  JUNCTION       14.69          0.900        0.000
  J17                  JUNCTION       35.04          1.600        0.000
  J18                  JUNCTION      164.61          1.800        0.000
  J19                  JUNCTION       81.65          0.912        1.788
  J20                  JUNCTION       86.45          0.482        1.918
  J21                  JUNCTION      103.61          0.300        0.000
  J22                  JUNCTION       87.05          1.285        0.915
  J23                  JUNCTION       56.76          1.200        0.000
  J24                  JUNCTION       10.94          3.700        0.000
  J25                  JUNCTION       33.04          2.319        0.881
  J26                  JUNCTION       60.03          1.200        0.000
  J27                  JUNCTION        8.66          2.000        0.000
  J28                  JUNCTION       59.82          0.800        0.000
  J29                  JUNCTION       63.39          0.700        0.000
  J30                  JUNCTION       38.36          0.848        0.352
  J31                  JUNCTION       33.55          0.741        0.459
  J32                  JUNCTION      197.38          1.200        0.000
  J33                  JUNCTION        5.34          1.700        0.000
  J34                  JUNCTION      193.99          0.800        0.000
  J35                  JUNCTION      202.19          0.962        0.138
  J36                  JUNCTION      177.19          0.900        0.000
  J37                  JUNCTION      151.69          1.200        0.000
  J38                  JUNCTION       59.32          0.744        1.356
  J39                  JUNCTION        7.83          0.703        0.797
  J40                  JUNCTION       10.53          1.200        0.000
  J45                  JUNCTION       83.27          0.162        1.238
  J46                  JUNCTION       65.64          0.156        1.044
  J47                  JUNCTION       64.49          0.000        0.000
  J52                  JUNCTION        1.27          1.200        0.000
  J53                  JUNCTION        1.73          0.041        1.659
  J56                  JUNCTION        6.65          0.010        0.000
  J57                  JUNCTION       91.58          0.000        0.000
  J58                  JUNCTION       33.66          0.000        0.000
  J61                  JUNCTION       18.61          1.700        0.000
  J65                  JUNCTION      162.55          0.100        0.000
  J66                  JUNCTION      203.54          0.500        0.000
  J67                  JUNCTION      203.86          0.500        0.000
  J68                  JUNCTION      364.45          0.000        0.000
  J69                  JUNCTION       17.74          0.000        0.000
  J70                  JUNCTION      168.12          0.000        0.000
  J72                  JUNCTION        3.76          0.000        0.000
  J73                  JUNCTION        3.11          0.000        0.000
  J74                  JUNCTION      210.18          0.000        0.000
  J77                  JUNCTION      256.17          0.000        0.000
  J78                  JUNCTION      207.55          0.000        0.000
  J80                  JUNCTION      168.06          0.100        0.000
  J81                  JUNCTION        4.23          0.000        0.000
  J83                  JUNCTION      178.08          0.200        0.000
  J84                  JUNCTION       13.46          0.000        0.000
  J86                  JUNCTION      471.94          0.000        0.000
  J89                  JUNCTION      125.84          0.054        1.046
  J98                  JUNCTION      314.59          0.100        0.000
  J99                  JUNCTION      384.66          0.200        0.000
  
  
  *********************
  Node Flooding Summary
  *********************
  
  Flooding refers to all water that overflows a node, whether it ponds or not.
  --------------------------------------------------------------------------
                                                             Total   Maximum
                                 Maximum   Time of Max       Flood    Ponded
                        Hours       Rate    Occurrence      Volume     Depth
  Node                 Flooded       CMS   days hr:min    10^6 ltr    Meters
  --------------------------------------------------------------------------
  J1                      0.43     0.059    254  18:56       0.045     0.000
  J3                      3.33     0.872    254  18:56       4.636     0.000
  J6                     18.36     0.372    254  19:16       7.470     0.000
  J7                      3.43     0.621    254  18:56       3.190     0.000
  J8                     37.23     2.257    268  00:20      49.181     0.000
  J10                    25.36     0.294    268  01:01      10.656     0.000
  J11                    41.85     0.068     60  15:47       8.115     0.000
  J12                   121.27     1.262    254  18:56      79.117     0.000
  J13                     4.06     0.492    254  18:56       2.753     0.000
  J15                    17.10     1.375    254  18:56      12.733     0.000
  J16                     2.94     0.245    254  18:56       1.058     0.000
  J17                     0.01     0.030    254  18:01       0.000     0.000
  J18                     5.57     0.405    254  19:16       3.967     0.000
  J21                    84.49     0.900    254  18:56      36.521     0.000
  J23                    35.33     0.288    254  19:13      11.717     0.000
  J24                     2.32     0.731    254  18:56       2.533     0.000
  J26                    22.56     1.753    254  18:56      18.377     0.000
  J27                     1.39     0.575    254  18:56       1.345     0.000
  J28                    16.29     0.151    254  18:33       3.395     0.000
  J29                    48.62     0.127    268  01:07      14.265     0.000
  J32                    30.23     1.204    254  18:56      16.411     0.000
  J33                     3.66     0.701    254  18:56       3.255     0.000
  J34                   146.17     0.400    254  18:05     103.434     0.000
  J36                    14.18     0.081    197  20:02       1.770     0.000
  J37                     7.02     0.697    254  18:56       4.479     0.000
  J40                     6.12     0.920    254  18:56       5.539     0.000
  J47                    64.47     1.564    254  19:01      24.814     0.000
  J52                     0.37     0.035    254  18:47       0.030     0.000
  J56                     4.76     0.202    254  18:55       0.993     0.000
  J57                    91.49     0.241    268  00:40      24.004     0.000
  J58                    33.64     0.775    254  18:55       8.194     0.000
  J61                     6.05     1.052    254  18:55       6.148     0.000
  J65                   149.91     0.598    254  18:58      61.757     0.000
  J66                     3.99     0.270    248  23:03       0.046     0.000
  J67                     7.05     0.039    248  23:02       0.011     0.000
  J68                   364.42     0.182    171  06:48     164.147     0.000
  J69                    17.73     2.707    254  18:56      23.147     0.000
  J70                   167.79     0.224    260  16:57      46.020     0.000
  J72                     3.74     0.007    254  18:35       0.081     0.000
  J73                     3.11     0.721    254  18:47       2.795     0.000
  J74                   209.93     0.284    197  20:19      26.597     0.000
  J77                   255.91     0.018    354  15:55      10.312     0.000
  J78                   207.11     2.275    254  18:56      57.971     0.000
  J80                   155.09     0.028    254  18:06       3.216     0.000
  J81                     4.06     0.038    197  20:14       0.081     0.000
  J83                   151.52     0.022    197  20:17       4.030     0.000
  J84                    13.41     0.196    254  18:47       1.440     0.000
  J86                   471.65     0.106    260  17:09     103.874     0.000
  J98                   255.93     0.036    197  20:26      17.163     0.000
  J99                   250.69     0.014    197  20:16       0.747     0.000
  
  
  ***********************
  Outfall Loading Summary
  ***********************
  
  -----------------------------------------------------------
                         Flow       Avg       Max       Total
                         Freq      Flow      Flow      Volume
  Outfall Node           Pcnt       CMS       CMS    10^6 ltr
  -----------------------------------------------------------
  O1                    30.80     0.019     0.049      61.557
  -----------------------------------------------------------
  System                30.80     0.019     0.049      61.557
  
  
  ********************
  Link Flow Summary
  ********************
  
  -----------------------------------------------------------------------------
                                 Maximum  Time of Max   Maximum    Max/    Max/
                                  |Flow|   Occurrence   |Veloc|    Full    Full
  Link                 Type          CMS  days hr:min     m/sec    Flow   Depth
  -----------------------------------------------------------------------------
  C1                   CONDUIT     0.440   254  19:06      3.50    1.81    1.00
  C2                   CONDUIT     0.440   254  19:02      3.50    1.05    1.00
  C3                   CONDUIT     0.518   267  23:08      4.22    0.96    1.00
  C4                   CONDUIT     0.460   268  01:01      3.66    1.01    1.00
  C5                   CONDUIT     0.313   254  18:29      4.43    1.09    1.00
  C6                   CONDUIT     0.088   275  03:22      1.24    2.39    1.00
  C7                   CONDUIT     0.088   275  03:22      1.39    1.73    1.00
  C8                   CONDUIT     0.245    60  16:29      3.96    1.15    0.82
  C9                   CONDUIT     0.245    60  16:15      4.32    0.74    0.82
  C10                  CONDUIT     0.412    35  04:11      3.28    1.05    1.00
  C11                  CONDUIT     0.344   267  23:53      2.73    1.00    1.00
  C12                  CONDUIT     0.164   254  18:25      2.32    1.16    1.00
  C13                  CONDUIT     0.191   313  01:14      1.99    2.73    0.72
  C14                  CONDUIT     0.191    35  04:31      2.76    0.40    0.72
  C15                  CONDUIT     0.328   105  15:55      2.75    1.19    1.00
  C16                  CONDUIT     0.366   254  18:25      3.41    0.93    1.00
  C17                  CONDUIT     0.134   229  22:17      1.90    2.41    1.00
  C18                  CONDUIT     0.133   275  03:21      2.07    1.38    1.00
  C19                  CONDUIT     0.464   254  18:39      6.57    1.32    1.00
  C20                  CONDUIT     0.176   267  22:09      2.49    1.08    1.00
  C21                  CONDUIT     0.176   267  22:04      2.49    1.63    1.00
  C22                  CONDUIT     0.118   260  16:57      1.68    1.67    1.00
  C23                  CONDUIT     0.110   260  16:58      1.97    1.18    1.00
  C24                  CONDUIT     0.109   154  08:58      1.97    0.53    1.00
  C25                  CONDUIT     0.366   254  18:26      2.91    0.90    1.00
  C26                  CONDUIT     0.431   254  18:04      3.77    2.89    1.00
  C27                  CONDUIT     0.685   254  18:38      5.45    1.11    1.00
  C28                  CONDUIT     0.247   267  23:20      3.49    1.09    1.00
  C29                  CONDUIT     0.159   275  03:19      2.28    2.41    1.00
  C30                  CONDUIT     0.144   260  17:01      2.26    1.10    1.00
  C31                  CONDUIT     0.130   248  22:57      1.98    0.86    1.00
  C32                  CONDUIT     0.123   269  03:03      1.74    1.72    1.00
  C33                  CONDUIT     0.534   197  21:17      4.25    1.00    1.00
  C34                  CONDUIT     0.295   197  20:02      2.34    1.55    1.00
  C35                  CONDUIT     0.115   197  20:16      1.63    1.43    1.00
  C36                  CONDUIT     0.080   275  03:20      1.14    0.91    1.00
  C37                  CONDUIT     0.287   229  22:18      2.34    1.95    1.00
  C38                  CONDUIT     0.172   254  18:56      2.43    1.65    1.00
  C39                  CONDUIT     0.172   254  18:56      2.43    0.96    1.00
  C40                  CONDUIT     0.374   254  18:56      3.41    1.19    0.86
  C41                  CONDUIT     0.498   254  18:56      5.55    0.85    0.67
  C42                  CONDUIT     0.000     0  00:00      0.00    0.00    0.41
  C43                  CONDUIT     0.080   275  03:18      1.21    1.22    1.00
  C44                  CONDUIT     0.068   254  18:01      1.00    0.86    1.00
  C45                  CONDUIT     0.067   229  22:19      1.08    3.54    0.83
  C46                  CONDUIT     0.067   229  22:19      1.38    0.77    0.73
  C47                  CONDUIT     0.562   254  18:56      1.36    0.16    0.26
  C48                  CONDUIT     0.562   254  18:56      1.60    0.13    0.22
  C49                  CONDUIT     0.562   254  18:57      1.30    0.09    0.28
  C50                  CONDUIT     0.196   254  19:45      3.09    2.03    0.84
  C51                  CONDUIT     0.196   197  20:17      3.61    0.82    0.74
  C52                  CONDUIT     0.196   197  20:21      2.94    0.97    0.90
  C53                  CONDUIT     0.045    60  15:03      0.90    1.00    1.00
  C54                  CONDUIT     0.045   260  16:58      0.67    2.72    1.00
  C55                  CONDUIT     0.054   275  03:22      0.82    2.86    0.96
  C56                  CONDUIT     0.054   275  03:22      0.95    1.29    0.92
  C57                  CONDUIT     0.053   254  18:04      1.04    0.78    0.96
  C58                  CONDUIT     0.053   260  17:41      1.69    1.33    1.00
  C59                  CONDUIT     0.284   254  18:47      4.51    1.79    0.83
  C60                  CONDUIT     0.284   254  18:47      4.51    0.78    0.83
  C61                  CONDUIT     0.891   254  18:57      1.60    0.28    0.34
  C62                  CONDUIT     0.891   254  18:57      2.09    0.20    0.26
  C63                  CONDUIT     0.891   254  18:57      3.08    0.10    0.18
  C64                  CONDUIT     0.891   254  18:58      2.52    0.06    0.57
  C65                  CONDUIT     0.695   225  22:02      1.20    0.12    1.00
  C66                  CONDUIT     0.253    60  15:38      1.69    1.00    1.00
  C67                  CONDUIT     0.029   198  04:39      0.34    4.26    0.58
  C68                  CONDUIT     0.029   134  21:56      1.25    0.07    0.58
  C69                  CONDUIT     0.030   275  03:18      0.34    1.36    1.00
  C70                  CONDUIT     0.308   197  20:17      2.06    0.99    1.00
  C71                  CONDUIT     0.032   275  00:03      0.31    3.22    0.93
  C72                  CONDUIT     0.024   260  17:16      0.29    2.45    0.55
  C73                  CONDUIT     0.024   260  17:19      0.28    0.12    0.61
  C74                  CONDUIT     0.038   225  21:50      0.37    3.33    1.00
  C75                  CONDUIT     0.027   328  03:59      0.29    3.25    0.63
  C76                  CONDUIT     0.027    22  16:33      0.67    0.15    0.63
  C77                  CONDUIT     0.000     0  00:00      0.00    0.00    0.50
  C78                  CONDUIT     0.042   254  18:06      0.64    0.77    1.00
  C79                  CONDUIT     0.034   254  18:05      0.39    0.51    1.00
  C80                  CONDUIT     0.216   254  18:47      3.24    0.96    0.89
  C81                  CONDUIT     0.057   197  20:12      0.95    0.67    1.00
  C82                  CONDUIT     0.074   260  17:03      0.64    0.71    1.00
  C83                  CONDUIT     0.058   197  20:11      0.87    0.35    1.00
  C84                  CONDUIT     0.182   171  06:48      2.57    5.36    1.00
  C85                  CONDUIT     0.131    37  19:54      0.87    1.96    1.00
  C86                  CONDUIT     0.016   260  17:05      0.34    0.20    0.75
  C87                  CONDUIT     0.033    41  05:55      0.34    1.26    0.66
  C88                  CONDUIT     0.033    41  05:55      0.70    0.20    0.66
  C89                  CONDUIT     0.000     0  00:00      0.00    0.00    0.00
  C90                  CONDUIT     0.000     0  00:00      0.00    0.00    0.00
  C91                  CONDUIT     0.000     0  00:00      0.00    0.00    0.00
  C92                  CONDUIT     0.000     0  00:00      0.00    0.00    0.16
  C93                  CONDUIT     0.002   146  14:55      0.19    0.05    0.25
  C94                  CONDUIT     0.008   254  16:23      0.42    0.13    0.41
  C95                  CONDUIT     0.003   283  16:45      0.17    0.04    0.32
  C96                  CONDUIT     0.022   197  20:20      0.45    0.30    0.74
  C97                  CONDUIT     0.044   330  09:21      0.80    0.46    1.00
  C98                  CONDUIT     0.048   329  21:06      0.83    0.49    1.00
  C99                  CONDUIT     0.049   329  21:05      0.91    0.38    1.00
  
  
  ***************************
  Flow Classification Summary
  ***************************
  
  -------------------------------------------------------------------------------------
                      Adjusted    ---------- Fraction of Time in Flow Class ---------- 
                       /Actual         Up    Down  Sub   Sup   Up    Down  Norm  Inlet 
  Conduit               Length    Dry  Dry   Dry   Crit  Crit  Crit  Crit  Ltd   Ctrl  
  -------------------------------------------------------------------------------------
  C1                      1.00   0.03  0.00  0.00  0.88  0.09  0.00  0.00  0.49  0.00
  C2                      1.00   0.05  0.39  0.00  0.48  0.08  0.00  0.00  0.97  0.00
  C3                      1.00   0.03  0.03  0.00  0.83  0.11  0.00  0.00  0.69  0.00
  C4                      1.00   0.10  0.31  0.00  0.47  0.11  0.00  0.00  0.65  0.00
  C5                      1.00   0.03  0.00  0.00  0.93  0.04  0.00  0.00  0.67  0.00
  C6                      1.00   0.03  0.00  0.00  0.97  0.00  0.00  0.00  0.89  0.00
  C7                      1.00   0.03  0.00  0.00  0.97  0.00  0.00  0.00  0.56  0.00
  C8                      1.00   0.03  0.04  0.00  0.78  0.15  0.00  0.00  0.28  0.00
  C9                      1.00   0.14  0.29  0.00  0.45  0.11  0.00  0.00  0.58  0.00
  C10                     1.00   0.30  0.01  0.00  0.53  0.15  0.00  0.00  0.67  0.00
  C11                     1.00   0.03  0.76  0.00  0.20  0.01  0.00  0.00  0.95  0.00
  C12                     1.00   0.03  0.11  0.00  0.86  0.00  0.00  0.00  0.97  0.00
  C13                     1.00   0.03  0.00  0.00  0.92  0.05  0.00  0.00  0.54  0.00
  C14                     1.00   0.06  0.36  0.00  0.41  0.18  0.00  0.00  0.61  0.00
  C15                     1.00   0.17  0.02  0.00  0.64  0.17  0.00  0.00  0.50  0.00
  C16                     1.00   0.31  0.01  0.00  0.45  0.22  0.00  0.00  0.44  0.00
  C17                     1.00   0.03  0.00  0.00  0.97  0.00  0.00  0.00  0.59  0.00
  C18                     1.00   0.03  0.00  0.00  0.87  0.10  0.00  0.00  0.82  0.00
  C19                     1.00   0.03  0.00  0.00  0.82  0.15  0.00  0.00  0.77  0.00
  C20                     1.00   0.03  0.00  0.00  0.87  0.10  0.00  0.00  0.95  0.00
  C21                     1.00   0.03  0.00  0.00  0.92  0.04  0.00  0.00  0.83  0.00
  C22                     1.00   0.03  0.00  0.00  0.93  0.04  0.00  0.00  0.83  0.00
  C23                     1.00   0.03  0.00  0.00  0.87  0.10  0.00  0.00  0.69  0.00
  C24                     1.00   0.03  0.34  0.00  0.62  0.01  0.00  0.00  0.87  0.00
  C25                     1.00   0.03  0.66  0.00  0.21  0.10  0.00  0.00  0.95  0.00
  C26                     1.00   0.03  0.00  0.00  0.82  0.15  0.00  0.00  0.56  0.00
  C27                     1.00   0.03  0.00  0.00  0.72  0.25  0.00  0.00  0.93  0.00
  C28                     1.00   0.03  0.84  0.00  0.12  0.00  0.00  0.00  0.97  0.00
  C29                     1.00   0.03  0.00  0.00  0.97  0.00  0.00  0.00  0.64  0.00
  C30                     1.00   0.03  0.00  0.00  0.86  0.11  0.00  0.00  0.72  0.00
  C31                     1.00   0.03  0.00  0.00  0.90  0.07  0.00  0.00  0.96  0.00
  C32                     1.00   0.03  0.23  0.00  0.74  0.00  0.00  0.00  0.89  0.00
  C33                     1.00   0.03  0.00  0.00  0.79  0.18  0.00  0.00  0.81  0.00
  C34                     1.00   0.03  0.00  0.00  0.92  0.05  0.00  0.00  0.93  0.00
  C35                     1.00   0.03  0.00  0.00  0.94  0.02  0.00  0.00  0.38  0.00
  C36                     1.00   0.03  0.81  0.00  0.16  0.00  0.00  0.00  0.94  0.00
  C37                     1.00   0.03  0.00  0.00  0.85  0.12  0.00  0.00  0.17  0.00
  C38                     1.00   0.03  0.00  0.00  0.91  0.06  0.00  0.00  0.91  0.00
  C39                     1.00   0.20  0.70  0.00  0.09  0.00  0.00  0.00  0.97  0.00
  C40                     1.00   0.13  0.08  0.00  0.59  0.20  0.00  0.00  0.48  0.00
  C41                     1.00   0.20  0.03  0.00  0.53  0.24  0.00  0.00  0.57  0.00
  C42                     1.00   0.60  0.40  0.00  0.00  0.00  0.00  0.00  0.00  0.00
  C43                     1.00   0.03  0.00  0.00  0.96  0.00  0.00  0.00  0.74  0.00
  C44                     1.00   0.03  0.04  0.00  0.93  0.00  0.00  0.00  0.49  0.00
  C45                     1.00   0.03  0.00  0.00  0.97  0.00  0.00  0.00  0.66  0.00
  C46                     1.00   0.25  0.06  0.00  0.68  0.02  0.00  0.00  0.90  0.00
  C47                     1.00   0.54  0.06  0.00  0.40  0.00  0.00  0.00  0.77  0.00
  C48                     1.00   0.53  0.01  0.00  0.42  0.04  0.00  0.00  0.58  0.00
  C49                     1.00   0.47  0.06  0.00  0.47  0.00  0.00  0.00  0.95  0.00
  C50                     1.00   0.03  0.00  0.00  0.89  0.08  0.00  0.00  0.82  0.00
  C51                     1.00   0.62  0.01  0.00  0.27  0.10  0.00  0.00  0.26  0.00
  C52                     1.00   0.03  0.67  0.00  0.29  0.01  0.00  0.00  0.96  0.00
  C53                     1.00   0.03  0.01  0.00  0.96  0.00  0.00  0.00  0.94  0.00
  C54                     1.00   0.03  0.00  0.00  0.97  0.00  0.00  0.00  0.87  0.00
  C55                     1.00   0.03  0.00  0.00  0.97  0.00  0.00  0.00  0.55  0.00
  C56                     1.00   0.03  0.00  0.00  0.97  0.00  0.00  0.00  0.43  0.00
  C57                     1.00   0.05  0.00  0.00  0.95  0.00  0.00  0.00  0.59  0.00
  C58                     1.00   0.15  0.10  0.00  0.75  0.00  0.00  0.00  0.67  0.00
  C59                     1.00   0.03  0.00  0.00  0.91  0.06  0.00  0.00  0.06  0.00
  C60                     1.00   0.47  0.46  0.00  0.06  0.01  0.00  0.00  0.96  0.00
  C61                     1.00   0.45  0.02  0.00  0.53  0.00  0.00  0.00  0.73  0.00
  C62                     1.00   0.47  0.00  0.00  0.47  0.06  0.00  0.00  0.24  0.00
  C63                     1.00   0.46  0.03  0.00  0.34  0.17  0.00  0.00  0.12  0.00
  C64                     1.00   0.44  0.04  0.00  0.41  0.11  0.00  0.00  0.96  0.00
  C65                     1.00   0.03  0.40  0.00  0.56  0.00  0.00  0.00  0.94  0.00
  C66                     1.00   0.03  0.51  0.00  0.45  0.00  0.00  0.00  0.95  0.00
  C67                     1.00   0.03  0.00  0.00  0.97  0.00  0.00  0.00  0.00  0.00
  C68                     1.00   0.03  0.27  0.00  0.69  0.00  0.00  0.00  0.94  0.00
  C69                     1.00   0.03  0.00  0.00  0.97  0.00  0.00  0.00  0.00  0.00
  C70                     1.00   0.03  0.17  0.00  0.79  0.00  0.00  0.00  0.97  0.00
  C71                     1.00   0.03  0.00  0.00  0.97  0.00  0.00  0.00  0.78  0.00
  C72                     1.00   0.03  0.00  0.00  0.97  0.00  0.00  0.00  0.00  0.00
  C73                     1.00   0.03  0.06  0.00  0.91  0.00  0.00  0.00  0.97  0.00
  C74                     1.00   0.03  0.00  0.00  0.97  0.00  0.00  0.00  0.74  0.00
  C75                     1.00   0.03  0.00  0.00  0.97  0.00  0.00  0.00  0.00  0.00
  C76                     1.00   0.03  0.03  0.00  0.94  0.00  0.00  0.00  0.97  0.00
  C77                     1.00   0.94  0.06  0.00  0.00  0.00  0.00  0.00  0.00  0.00
  C78                     1.00   0.03  0.91  0.00  0.06  0.00  0.00  0.00  0.93  0.00
  C79                     1.00   0.03  0.00  0.00  0.97  0.00  0.00  0.00  0.00  0.00
  C80                     1.00   0.05  0.01  0.00  0.92  0.02  0.00  0.00  0.97  0.00
  C81                     1.00   0.04  0.88  0.00  0.08  0.00  0.00  0.00  0.94  0.00
  C82                     1.00   0.03  0.00  0.00  0.96  0.00  0.00  0.00  0.94  0.00
  C83                     1.00   0.03  0.94  0.00  0.03  0.00  0.00  0.00  0.91  0.00
  C84                     1.00   0.03  0.83  0.00  0.13  0.00  0.00  0.00  0.86  0.00
  C85                     1.00   0.03  0.00  0.00  0.97  0.00  0.00  0.00  0.92  0.00
  C86                     1.00   0.03  0.88  0.00  0.09  0.00  0.00  0.00  0.90  0.00
  C87                     1.00   0.03  0.00  0.00  0.97  0.00  0.00  0.00  0.00  0.00
  C88                     1.00   0.03  0.01  0.00  0.96  0.00  0.00  0.00  0.97  0.00
  C89                     1.00   1.00  0.00  0.00  0.00  0.00  0.00  0.00  0.00  0.00
  C90                     1.00   1.00  0.00  0.00  0.00  0.00  0.00  0.00  0.00  0.00
  C91                     1.00   1.00  0.00  0.00  0.00  0.00  0.00  0.00  0.00  0.00
  C92                     1.00   0.52  0.48  0.00  0.00  0.00  0.00  0.00  0.00  0.00
  C93                     1.00   0.09  0.00  0.00  0.91  0.00  0.00  0.00  0.92  0.00
  C94                     1.00   0.50  0.02  0.00  0.48  0.00  0.00  0.00  0.92  0.00
  C95                     1.00   0.93  0.03  0.00  0.04  0.00  0.00  0.00  0.92  0.00
  C96                     1.00   0.03  0.89  0.00  0.07  0.00  0.00  0.00  0.92  0.00
  C97                     1.00   0.03  0.00  0.00  0.97  0.00  0.00  0.00  0.66  0.00
  C98                     1.00   0.03  0.05  0.00  0.92  0.00  0.00  0.00  0.77  0.00
  C99                     1.00   0.02  0.00  0.00  0.94  0.03  0.00  0.00  0.05  0.00
  
  
  *************************
  Conduit Surcharge Summary
  *************************
  
  ----------------------------------------------------------------------------
                                                           Hours        Hours 
                         --------- Hours Full --------   Above Full   Capacity
  Conduit                Both Ends  Upstream  Dnstream   Normal Flow   Limited
  ----------------------------------------------------------------------------
  C1                          0.90      2.35      0.90      2.35         0.90
  C2                          0.90      0.90      3.46      0.55         0.55
  C3                          3.46      3.46      5.23      0.01         0.01
  C4                          5.23      5.23     40.51      3.41         3.41
  C5                          3.80      3.80     41.17      3.64         3.63
  C6                         32.33     41.17     32.33     68.46        28.07
  C7                          6.13     32.33      6.13     42.48         1.69
  C8                          0.01     54.99      0.01     49.44         0.01
  C9                          0.01      0.01     43.14      0.01         0.01
  C10                        40.51     40.51     55.28     29.29        29.27
  C11                        55.28     55.28    193.09      0.01         0.01
  C12                         6.79      6.79    219.62      5.11         5.10
  C13                         0.01    193.09      0.01    252.87         0.01
  C14                         0.01      0.01     32.09      0.01         0.01
  C15                        14.69     32.09     14.69     29.21         9.61
  C16                        14.69     14.69     35.04      0.01         0.01
  C17                        33.04     60.03     33.04     71.23        28.63
  C18                        10.94     33.04     10.94     32.06         4.94
  C19                        10.94     10.94     56.76      5.19         5.19
  C20                        56.76     56.76     87.05     39.03        39.04
  C21                        87.04     87.04    103.60     68.24        68.23
  C22                        86.45    103.60     86.45    106.96        77.16
  C23                        81.64     86.45     81.64     48.06        34.98
  C24                        81.64     81.64    193.47      0.01         0.01
  C25                        35.04     35.04    164.61      0.01         0.01
  C26                         8.66    164.61      8.66    194.68         6.53
  C27                         8.66      8.66     59.82      4.80         4.80
  C28                         5.34      5.34    197.35      4.18         4.18
  C29                        33.55     33.55    197.35     67.40         0.01
  C30                        33.53     33.55     38.36      0.08         0.01
  C31                        38.36     38.36     63.39      0.01         0.01
  C32                        63.34     63.39     70.76     23.86        23.26
  C33                        59.82     59.82    193.99      0.01         0.01
  C34                       193.99    193.99    202.19    159.79       159.67
  C35                       151.69    151.69    177.18     12.30        12.33
  C36                       177.18    177.18    227.20      0.01         0.08
  C37                        59.32    202.19     59.32    221.98        59.32
  C38                         7.82     10.53      7.82     13.26         7.82
  C39                         7.83      7.83    147.02      0.01         0.01
  C40                         0.01     59.32      0.01     42.49         0.01
  C43                        64.42     64.47     65.64      0.50         0.01
  C44                        65.64     65.64     83.27      0.01         0.01
  C45                         0.01     83.27      0.01    171.35         0.01
  C50                         0.01     18.61      0.01     20.41         0.01
  C52                         0.01      0.01     91.51      0.01         0.01
  C53                        33.64     33.64     91.51     32.31         0.01
  C54                         6.64     91.51      6.64    159.45         0.01
  C55                         0.01      6.64      0.01    163.60         0.01
  C56                         0.01      0.01      0.01     94.88         0.01
  C57                         0.01      0.01      1.73      0.01         0.01
  C58                         0.99      1.73      0.99     98.28         0.99
  C59                         0.01      1.27      0.01      1.42         0.01
  C60                         0.01      0.01      0.99      0.01         0.01
  C64                         0.01      0.01    162.55      0.01         0.01
  C65                       162.55    162.55    203.53      0.01         0.01
  C66                        17.74     17.74    167.84      0.01         0.01
  C67                         0.01    167.84      0.01    359.82         0.01
  C69                         0.01      0.01      0.01    200.11         0.01
  C70                         0.01      0.01    209.97      0.01         0.01
  C71                         0.01    209.97      0.01    319.99         0.01
  C72                         0.01      0.01      0.01    323.77         0.01
  C73                         0.01      0.01    255.96      0.01         0.01
  C74                       206.74    255.96    207.14    301.97         0.01
  C75                         0.01    207.14      0.01    402.66         0.01
  C76                         0.01      0.01    168.05      0.01         0.01
  C78                         4.06      4.06    168.05      0.01         0.01
  C79                       168.05    168.05    178.08      0.01         0.01
  C80                         0.01      0.01     13.42      0.01         0.01
  C81                        13.42     13.42    178.08      0.01         0.01
  C82                       178.08    178.08    381.25      0.01         0.01
  C83                       203.79    203.79   8216.72      0.01         0.01
  C84                       364.41    364.42    381.25    315.24         0.01
  C85                       380.78    381.25    471.70    380.97       380.77
  C86                         0.01      0.01    471.70      0.01         0.01
  C87                         0.01    471.70      0.01    509.73         0.01
  C88                         0.01      0.01    312.70      0.01         0.01
  C96                         0.01      0.01    312.70      0.01         0.01
  C97                       125.80    125.80    314.53      0.01         0.01
  C98                       314.52    314.52    384.54      0.01         0.01
  C99                       384.53    384.53   2466.97      0.01         0.01
  

  Analysis begun on:  Thu Jun 26 19:47:21 2025
  Analysis ended on:  Thu Jun 26 19:49:22 2025
  Total elapsed time: 00:02:01