
  EPA STORM WATER MANAGEMENT MODEL - VERSION 5.2 (Build 5.2.4)
  PYSWMM TOOLKIT API - VERSION v1.0 (2023-11-27)
  ------------------------------------------------------------

  WARNING 02: maximum depth increased for Node J47
  WARNING 02: maximum depth increased for Node J57
  WARNING 02: maximum depth increased for Node J58
  WARNING 02: maximum depth increased for Node J68
  WARNING 02: maximum depth increased for Node J81
  WARNING 02: maximum depth increased for Node J84
  WARNING 02: maximum depth increased for Node J86
  WARNING 02: maximum depth increased for Node J87
  WARNING 02: maximum depth increased for Node J91
  WARNING 02: maximum depth increased for Node J93
  WARNING 02: maximum depth increased for Node J97
  
  ****************
  Analysis Options
  ****************
  Flow Units ............... CMS
  Process Models:
    Rainfall/Runoff ........ YES
    RDII ................... NO
    Snowmelt ............... NO
    Groundwater ............ NO
    Flow Routing ........... YES
    Ponding Allowed ........ NO
    Water Quality .......... NO
  Infiltration Method ...... GREEN_AMPT
  Flow Routing Method ...... DYNWAVE
  Surcharge Method ......... EXTRAN
  Starting Date ............ 09/20/2018 23:49:00
  Ending Date .............. 10/02/2018 00:00:00
  Antecedent Dry Days ...... 0.0
  Report Time Step ......... 00:01:00
  Wet Time Step ............ 00:01:00
  Dry Time Step ............ 00:01:00
  Routing Time Step ........ 30.00 sec
  Variable Time Step ....... YES
  Maximum Trials ........... 8
  Number of Threads ........ 1
  Head Tolerance ........... 0.001500 m
  
  
  **************************        Volume         Depth
  Runoff Quantity Continuity     hectare-m            mm
  **************************     ---------       -------
  Total Precipitation ......        22.430       115.570
  Evaporation Loss .........         0.000         0.000
  Infiltration Loss ........        21.987       113.290
  Surface Runoff ...........         0.441         2.270
  Final Storage ............         0.005         0.027
  Continuity Error (%) .....        -0.015
  
  
  **************************        Volume        Volume
  Flow Routing Continuity        hectare-m      10^6 ltr
  **************************     ---------     ---------
  Dry Weather Inflow .......         0.000         0.000
  Wet Weather Inflow .......         0.440         4.398
  Groundwater Inflow .......         0.000         0.000
  RDII Inflow ..............         0.000         0.000
  External Inflow ..........         0.000         0.000
  External Outflow .........         0.060         0.600
  Flooding Loss ............         0.378         3.782
  Evaporation Loss .........         0.000         0.000
  Exfiltration Loss ........         0.000         0.000
  Initial Stored Volume ....         0.000         0.003
  Final Stored Volume ......         0.002         0.022
  Continuity Error (%) .....        -0.081
  
  
  *************************
  Highest Continuity Errors
  *************************
  Node J12 (2.06%)
  Node J81 (2.04%)
  
  
  ***************************
  Time-Step Critical Elements
  ***************************
  Link C41 (6.21%)
  Link C88 (5.13%)
  Link C97 (3.46%)
  Link C79 (1.51%)
  Link C99 (1.22%)
  
  
  ********************************
  Highest Flow Instability Indexes
  ********************************
  Link C13 (1)
  
  
  *********************************
  Most Frequent Nonconverging Nodes
  *********************************
  Node O1 (0.75%)
  Node J34 (0.29%)
  Node J35 (0.23%)
  Node J22 (0.19%)
  Node J36 (0.17%)
  
  
  *************************
  Routing Time Step Summary
  *************************
  Minimum Time Step           :     1.57 sec
  Average Time Step           :    26.40 sec
  Maximum Time Step           :    30.00 sec
  % of Time in Steady State   :     0.00
  Average Iterations per Step :     2.10
  % of Steps Not Converging   :     0.75
  Time Step Frequencies       :
     30.000 - 13.228 sec      :    89.03 %
     13.228 -  5.833 sec      :     9.09 %
      5.833 -  2.572 sec      :     1.81 %
      2.572 -  1.134 sec      :     0.07 %
      1.134 -  0.500 sec      :     0.00 %
  
  
  ***************************
  Subcatchment Runoff Summary
  ***************************
  
  ------------------------------------------------------------------------------------------------------------------------------
                            Total      Total      Total      Total     Imperv       Perv      Total       Total     Peak  Runoff
                           Precip      Runon       Evap      Infil     Runoff     Runoff     Runoff      Runoff   Runoff   Coeff
  Subcatchment                 mm         mm         mm         mm         mm         mm         mm    10^6 ltr      CMS
  ------------------------------------------------------------------------------------------------------------------------------
  W1                       115.57       0.00       0.00     114.00       1.54       0.04       1.57        0.06     0.02   0.014
  W2                       115.57       0.00       0.00     112.44       3.08       0.04       3.12        0.23     0.08   0.027
  W3                       115.57       0.00       0.00     113.36       2.17       0.04       2.21        0.15     0.06   0.019
  W4                       115.57       1.87       0.00     115.62       1.76       0.05       1.82        0.16     0.06   0.015
  W5                       115.57       0.00       0.00     114.62       0.92       0.04       0.96        0.07     0.03   0.008
  W6                       115.57       0.00       0.00     113.86       1.66       0.05       1.71        0.08     0.03   0.015
  W7                       115.57       0.00       0.00     113.22       2.29       0.07       2.35        0.19     0.08   0.020
  W8                       115.57       0.00       0.00     114.35       1.17       0.05       1.22        0.03     0.01   0.011
  W9                       115.57       0.00       0.00     112.28       3.23       0.05       3.28        0.35     0.13   0.028
  W10                      115.57       0.00       0.00     112.28       3.23       0.05       3.28        0.28     0.10   0.028
  W11                      115.57       0.00       0.00     114.56       0.93       0.08       1.01        0.07     0.04   0.009
  W12                      115.57       0.00       0.00     113.35       2.15       0.07       2.22        0.10     0.04   0.019
  W13                      115.57       0.00       0.00     115.14       0.38       0.05       0.43        0.00     0.00   0.004
  W14                      115.57       0.00       0.00     113.10       2.39       0.08       2.47        0.11     0.05   0.021
  W15                      115.57       0.00       0.00     114.15       1.37       0.06       1.43        0.10     0.05   0.012
  W16                      115.57       2.70       0.00     115.92       2.23       0.13       2.36        0.09     0.04   0.020
  W17                      115.57       0.00       0.00     114.91       0.53       0.13       0.66        0.01     0.01   0.006
  W18                      115.57       0.00       0.00     112.87       2.60       0.10       2.71        0.17     0.07   0.023
  W19                      115.57       0.00       0.00     115.39       0.09       0.09       0.18        0.01     0.02   0.002
  W20                      115.57       0.00       0.00     114.46       1.04       0.08       1.12        0.06     0.03   0.010
  W21                      115.57       0.00       0.00     113.24       2.28       0.04       2.32        0.20     0.07   0.020
  W22                      115.57       2.30       0.00     113.62       4.18       0.05       4.23        0.36     0.13   0.036
  W23                      115.57       0.00       0.00     112.57       2.93       0.07       3.00        0.19     0.07   0.026
  W24                      115.57       0.00       0.00     113.56       1.95       0.05       2.01        0.08     0.03   0.017
  W25                      115.57       4.71       0.00     118.56       1.67       0.05       1.72        0.16     0.06   0.014
  W26                      115.57       0.00       0.00     114.73       0.66       0.18       0.84        0.01     0.01   0.007
  W27                      115.57       0.00       0.00     114.80       0.54       0.22       0.77        0.01     0.01   0.007
  W28                      115.57       0.00       0.00     115.21       0.00       0.00       0.00        0.00     0.00   0.000
  W29                      115.57       0.00       0.00     115.02       0.00       0.00       0.00        0.00     0.00   0.000
  W30                      115.57       0.00       0.00     113.37       2.09       0.12       2.21        0.09     0.04   0.019
  W31                      115.57       0.00       0.00     115.34       0.00       0.00       0.00        0.00     0.00   0.000
  W32                      115.57       0.00       0.00     115.29       0.00       0.00       0.00        0.00     0.00   0.000
  W33                      115.57       0.00       0.00     108.13       7.34       0.06       7.40        1.24     0.42   0.064
  W34                      115.57       0.00       0.00     112.78       2.62       0.18       2.80        0.12     0.06   0.024
  W35                      115.57       0.00       0.00     111.52       3.98       0.07       4.04        0.53     0.20   0.035
  
  
  ******************
  Node Depth Summary
  ******************
  
  ---------------------------------------------------------------------------------
                                 Average  Maximum  Maximum  Time of Max    Reported
                                   Depth    Depth      HGL   Occurrence   Max Depth
  Node                 Type       Meters   Meters   Meters  days hr:min      Meters
  ---------------------------------------------------------------------------------
  J1                   JUNCTION     0.00     0.09    49.04     4  23:36        0.08
  J2                   JUNCTION     0.00     0.06    47.59     4  23:37        0.06
  J3                   JUNCTION     0.00     0.11    44.71     4  23:36        0.11
  J4                   JUNCTION     0.00     0.15    40.06     4  23:36        0.15
  J5                   JUNCTION     0.01     0.23    40.29     4  23:37        0.23
  J6                   JUNCTION     0.01     0.29    40.41     4  23:36        0.28
  J7                   JUNCTION     0.00     0.09    43.95     4  23:36        0.09
  J8                   JUNCTION     0.00     0.12    49.08     4  23:36        0.11
  J9                   JUNCTION     0.00     0.09    45.56     4  23:36        0.08
  J10                  JUNCTION     0.01     0.20    37.07     4  23:37        0.20
  J11                  JUNCTION     0.01     0.22    34.26     4  23:37        0.21
  J12                  JUNCTION     1.08     1.80    32.98     4  21:43        1.80
  J13                  JUNCTION     0.00     0.08    33.50     4  23:36        0.08
  J14                  JUNCTION     0.00     0.06    32.94     6  02:55        0.06
  J15                  JUNCTION     0.01     0.17    27.10     4  23:36        0.16
  J16                  JUNCTION     0.01     0.14    25.65     4  23:36        0.14
  J17                  JUNCTION     0.01     0.14    22.48     4  23:37        0.14
  J18                  JUNCTION     0.02     0.55    20.62     4  23:37        0.45
  J19                  JUNCTION     0.01     0.16    21.50     4  23:18        0.16
  J20                  JUNCTION     0.01     0.46    22.11     4  23:28        0.35
  J21                  JUNCTION     0.01     0.60    22.44     4  23:18        0.60
  J22                  JUNCTION     0.01     1.35    23.63     4  23:32        1.35
  J23                  JUNCTION     0.01     1.50    24.78     4  23:31        1.50
  J24                  JUNCTION     0.00     0.19    26.75     4  23:36        0.17
  J25                  JUNCTION     0.01     0.91    27.96     4  23:36        0.30
  J26                  JUNCTION     0.01     1.50    28.73     4  23:36        1.03
  J27                  JUNCTION     0.01     0.17    20.04     4  23:37        0.17
  J28                  JUNCTION     0.01     0.22    15.24     4  23:37        0.22
  J29                  JUNCTION     0.01     0.31    15.52     4  23:37        0.29
  J30                  JUNCTION     0.00     0.17    16.69     4  23:36        0.17
  J31                  JUNCTION     0.00     0.20    17.60     4  23:36        0.18
  J32                  JUNCTION     0.13     0.95    18.16     4  23:36        0.92
  J33                  JUNCTION     0.00     0.07    19.86     4  23:36        0.07
  J34                  JUNCTION     0.02     1.20    12.99     4  23:30        1.20
  J35                  JUNCTION     0.02     1.07    12.57     4  23:36        1.07
  J36                  JUNCTION     0.01     0.89    12.68     4  23:36        0.88
  J37                  JUNCTION     0.01     0.73    12.82     4  23:36        0.71
  J38                  JUNCTION     0.01     0.32    11.54     4  23:36        0.32
  J39                  JUNCTION     0.00     0.06    12.87     4  23:38        0.06
  J40                  JUNCTION     0.00     0.08    13.19     4  23:36        0.08
  J41                  JUNCTION     0.01     0.20     9.95     4  23:36        0.20
  J42                  JUNCTION     0.01     0.17     6.42     4  23:38        0.17
  J43                  JUNCTION     0.00     0.00     9.75     0  00:00        0.00
  J44                  JUNCTION     0.00     0.13     6.57     4  23:37        0.13
  J45                  JUNCTION     0.01     0.24     6.69     4  23:37        0.23
  J46                  JUNCTION     0.00     0.15     6.80     4  23:36        0.15
  J47                  JUNCTION     0.00     0.17     6.97     4  23:36        0.17
  J48                  JUNCTION     0.01     0.15     6.28     4  23:38        0.15
  J49                  JUNCTION     0.00     0.12     6.08     4  23:39        0.12
  J50                  JUNCTION     0.01     0.20     5.85     4  23:39        0.20
  J51                  JUNCTION     0.00     0.03     8.19     4  23:36        0.03
  J52                  JUNCTION     0.00     0.06     8.71     4  23:36        0.05
  J53                  JUNCTION     0.01     0.23     5.91     4  23:39        0.23
  J54                  JUNCTION     0.01     0.18     5.97     4  23:36        0.18
  J55                  JUNCTION     0.01     0.22     6.05     4  23:36        0.22
  J56                  JUNCTION     0.01     0.27     6.10     4  23:36        0.26
  J57                  JUNCTION     0.01     0.30     6.14     4  23:28        0.30
  J58                  JUNCTION     0.01     0.29     6.24     4  23:36        0.26
  J59                  JUNCTION     0.00     0.12     8.11     4  23:37        0.12
  J60                  JUNCTION     0.00     0.11    11.24     4  23:36        0.11
  J61                  JUNCTION     0.00     0.21    11.83     4  23:36        0.19
  J62                  JUNCTION     0.01     0.16     5.73     4  23:39        0.16
  J63                  JUNCTION     0.00     0.11     5.47     4  23:40        0.11
  J64                  JUNCTION     0.00     0.08     4.72     4  23:40        0.08
  J65                  JUNCTION     0.01     1.00     3.51     4  23:41        1.00
  J66                  JUNCTION     0.04     1.40     3.51     4  23:41        1.40
  J67                  JUNCTION     0.00     0.80     3.51     4  23:41        0.80
  J68                  JUNCTION     0.02     0.30     2.45     4  21:55        0.30
  J69                  JUNCTION     0.01     0.30    32.78     4  23:28        0.30
  J70                  JUNCTION     0.02     0.30    26.20     4  21:42        0.30
  J71                  JUNCTION     0.00     0.05    25.95     4  21:53        0.05
  J72                  JUNCTION     0.02     0.28    16.10     6  03:11        0.28
  J73                  JUNCTION     0.00     0.12    15.91     4  23:36        0.11
  J74                  JUNCTION     0.03     0.30     8.72     4  21:48        0.30
  J75                  JUNCTION     0.02     0.26     8.67     4  22:09        0.26
  J76                  JUNCTION     0.01     0.07     8.47     5  00:33        0.07
  J77                  JUNCTION     0.03     0.30     6.48     4  21:47        0.30
  J78                  JUNCTION     0.03     0.30     6.47     4  21:47        0.30
  J79                  JUNCTION     0.01     0.09     6.26     6  03:05        0.09
  J80                  JUNCTION     0.01     0.07     3.62     6  03:07        0.07
  J81                  JUNCTION     0.19     0.30     3.55     4  14:01        0.30
  J82                  JUNCTION     0.00     0.00     4.84     0  00:00        0.00
  J83                  JUNCTION     0.01     0.50     3.54     4  23:43        0.50
  J84                  JUNCTION     0.00     0.30     3.55     4  23:42        0.30
  J85                  JUNCTION     0.00     0.04     4.88     4  23:36        0.04
  J86                  JUNCTION     0.03     0.30     2.02     4  21:56        0.30
  J87                  JUNCTION     0.01     0.15     2.07     6  03:08        0.14
  J88                  JUNCTION     0.01     0.09     1.77     4  22:13        0.09
  J89                  JUNCTION     0.05     0.41     0.93     6  03:35        0.41
  J90                  JUNCTION     0.01     0.14     0.93     6  03:33        0.14
  J91                  JUNCTION     0.00     0.04     0.93     6  03:34        0.04
  J92                  JUNCTION     0.01     0.09     0.94     6  03:34        0.09
  J93                  JUNCTION     0.00     0.05     0.94     6  03:34        0.05
  J94                  JUNCTION     0.00     0.00     1.67     0  00:00        0.00
  J95                  JUNCTION     0.00     0.00     2.07     0  00:00        0.00
  J96                  JUNCTION     0.00     0.00     2.07     0  00:00        0.00
  J97                  JUNCTION     0.00     0.00     2.17     0  00:00        0.00
  J98                  JUNCTION     0.06     0.50     0.92     4  14:22        0.50
  J99                  JUNCTION     0.08     0.60     0.92     4  14:22        0.60
  O1                   OUTFALL      0.37     1.35     1.57     7  18:00        1.35
  
  
  *******************
  Node Inflow Summary
  *******************
  
  -------------------------------------------------------------------------------------------------
                                  Maximum  Maximum                  Lateral       Total        Flow
                                  Lateral    Total  Time of Max      Inflow      Inflow     Balance
                                   Inflow   Inflow   Occurrence      Volume      Volume       Error
  Node                 Type           CMS      CMS  days hr:min    10^6 ltr    10^6 ltr     Percent
  -------------------------------------------------------------------------------------------------
  J1                   JUNCTION     0.024    0.024     4  23:36      0.0611      0.0611      -0.267
  J2                   JUNCTION     0.000    0.022     4  23:36           0      0.0612       0.578
  J3                   JUNCTION     0.081    0.098     4  23:36       0.227       0.288      -0.103
  J4                   JUNCTION     0.000    0.138     4  23:36           0       0.442       0.017
  J5                   JUNCTION     0.000    0.051     4  23:36           0       0.154       0.282
  J6                   JUNCTION     0.000    0.057     4  23:36           0       0.154       0.034
  J7                   JUNCTION     0.058    0.058     4  23:36       0.154       0.154      -0.156
  J8                   JUNCTION     0.064    0.064     4  23:36       0.157       0.157      -0.144
  J9                   JUNCTION     0.000    0.061     4  23:36           0       0.157       0.016
  J10                  JUNCTION     0.000    0.194     4  23:36           0       0.599       0.044
  J11                  JUNCTION     0.000    0.189     4  23:37           0       0.599       0.028
  J12                  JUNCTION     0.030    0.230     4  23:37      0.0659       0.741       2.105
  J13                  JUNCTION     0.031    0.031     4  23:36      0.0759      0.0759      -0.041
  J14                  JUNCTION     0.000    0.023     6  02:53           0       0.308       0.030
  J15                  JUNCTION     0.080    0.103     4  23:36       0.194       0.502      -0.022
  J16                  JUNCTION     0.014    0.106     4  23:36      0.0297       0.532       0.002
  J17                  JUNCTION     0.000    0.104     4  23:36           0       0.532       0.009
  J18                  JUNCTION     0.000    0.209     4  23:37           0         1.2       0.017
  J19                  JUNCTION     0.000    0.110     4  23:18           0       0.663      -0.002
  J20                  JUNCTION     0.000    0.117     6  03:03           0       0.663      -0.037
  J21                  JUNCTION     0.041    0.217     4  23:36      0.0972       0.725      -0.046
  J22                  JUNCTION     0.000    0.176     4  23:32           0       0.628      -0.029
  J23                  JUNCTION     0.000    0.219     4  23:36           0       0.631      -0.001
  J24                  JUNCTION     0.105    0.224     4  23:36       0.283       0.631      -0.033
  J25                  JUNCTION     0.000    0.129     4  23:36           0       0.348       0.136
  J26                  JUNCTION     0.129    0.129     4  23:36       0.348       0.348      -0.116
  J27                  JUNCTION     0.038    0.235     4  23:37      0.0682        1.26      -0.002
  J28                  JUNCTION     0.000    0.317     4  23:37           0        1.51       0.007
  J29                  JUNCTION     0.000    0.092     4  23:36           0       0.244       0.078
  J30                  JUNCTION     0.000    0.096     4  23:36           0       0.244      -0.010
  J31                  JUNCTION     0.000    0.101     4  23:36           0       0.244      -0.021
  J32                  JUNCTION     0.074    0.101     4  23:36       0.187       0.246       0.932
  J33                  JUNCTION     0.030    0.030     4  23:36      0.0589      0.0589      -0.044
  J34                  JUNCTION     0.000    0.316     4  23:38           0        1.51      -0.002
  J35                  JUNCTION     0.000    0.276     4  23:36           0        1.59      -0.028
  J36                  JUNCTION     0.000    0.046     4  23:36           0       0.115      -0.170
  J37                  JUNCTION     0.046    0.046     4  23:36        0.11        0.11      -0.308
  J38                  JUNCTION     0.000    0.286     4  23:36           0         1.6       0.011
  J39                  JUNCTION     0.000    0.016     4  23:38           0      0.0104      -0.318
  J40                  JUNCTION     0.016    0.016     4  23:38      0.0104      0.0104      -0.207
  J41                  JUNCTION     0.002    0.287     4  23:36     0.00362         1.6       0.003
  J42                  JUNCTION     0.000    0.321     4  23:38           0        1.69      -0.001
  J43                  JUNCTION     0.000    0.000     0  00:00           0           0       0.000 ltr
  J44                  JUNCTION     0.000    0.035     4  23:37           0       0.091       0.025
  J45                  JUNCTION     0.000    0.038     4  23:36           0      0.0911       0.130
  J46                  JUNCTION     0.000    0.042     4  23:36           0      0.0912       0.051
  J47                  JUNCTION     0.042    0.042     4  23:36       0.091       0.091      -0.163
  J48                  JUNCTION     0.000    0.321     4  23:38           0        1.69      -0.003
  J49                  JUNCTION     0.000    0.323     4  23:39           0        1.69       0.010
  J50                  JUNCTION     0.000    0.372     4  23:39           0        1.94      -0.002
  J51                  JUNCTION     0.000    0.010     4  23:36           0       0.012       0.170
  J52                  JUNCTION     0.010    0.010     4  23:36       0.012       0.012      -0.151
  J53                  JUNCTION     0.000    0.044     4  23:37           0       0.238       0.003
  J54                  JUNCTION     0.000    0.044     4  23:36           0       0.238       0.002
  J55                  JUNCTION     0.000    0.044     4  23:36           0       0.238       0.004
  J56                  JUNCTION     0.006    0.045     4  23:36     0.00779       0.238       0.006
  J57                  JUNCTION     0.000    0.105     4  23:36           0       0.256       0.213
  J58                  JUNCTION     0.042    0.042     4  23:36      0.0865      0.0865      -0.496
  J59                  JUNCTION     0.000    0.069     4  23:36           0       0.169       0.001
  J60                  JUNCTION     0.000    0.071     4  23:36           0        0.17       0.101
  J61                  JUNCTION     0.075    0.075     4  23:36       0.169       0.169      -0.139
  J62                  JUNCTION     0.000    0.372     4  23:39           0        1.94      -0.003
  J63                  JUNCTION     0.000    0.372     4  23:39           0        1.94       0.002
  J64                  JUNCTION     0.000    0.372     4  23:40           0        1.94       0.003
  J65                  JUNCTION     0.000    0.372     4  23:40           0        1.95      -0.018
  J66                  JUNCTION     0.000    0.448     4  23:33           0         2.3      -0.029
  J67                  JUNCTION     0.000    0.013     4  23:25           0       0.006      -2.080
  J68                  JUNCTION     0.000    0.182     4  23:43           0       0.873      -0.048
  J69                  JUNCTION     0.425    0.425     4  23:36        1.24        1.24      -0.018
  J70                  JUNCTION     0.000    0.253     4  23:29           0        1.19      -0.009
  J71                  JUNCTION     0.000    0.029     4  22:05           0       0.451       0.002
  J72                  JUNCTION     0.000    0.029     4  21:53           0       0.451      -0.002
  J73                  JUNCTION     0.063    0.093     4  23:36       0.125       0.575      -0.005
  J74                  JUNCTION     0.000    0.088     4  23:36           0       0.575      -0.007
  J75                  JUNCTION     0.000    0.031     6  02:59           0       0.422       0.022
  J76                  JUNCTION     0.000    0.024     4  22:09           0       0.422      -0.004
  J77                  JUNCTION     0.000    0.024     4  22:10           0       0.434      -0.008
  J78                  JUNCTION     0.198    0.210     4  23:36       0.528       0.837      -0.010
  J79                  JUNCTION     0.000    0.027     6  03:04           0        0.53       0.004
  J80                  JUNCTION     0.000    0.027     6  03:05           0        0.53      -0.016
  J81                  JUNCTION     0.000    0.010     6  03:07           0       0.179       2.083
  J82                  JUNCTION     0.000    0.000     0  00:00           0           0       0.000 ltr
  J83                  JUNCTION     0.000    0.027     4  23:47           0        0.36      -0.012
  J84                  JUNCTION     0.000    0.026     4  23:42           0      0.0095      -0.281
  J85                  JUNCTION     0.007    0.007     4  23:36     0.00706     0.00706      -0.668
  J86                  JUNCTION     0.000    0.131     4  23:43           0        1.43      -0.027
  J87                  JUNCTION     0.000    0.014     6  03:08           0      0.0081       0.769
  J88                  JUNCTION     0.000    0.033     4  22:13           0       0.784      -0.007
  J89                  JUNCTION     0.000    0.036     6  03:20           0       0.795      -0.061
  J90                  JUNCTION     0.000    0.011     6  03:18           0      0.0166      -0.021
  J91                  JUNCTION     0.000    0.001     4  14:22           0    0.000696       3.054
  J92                  JUNCTION     0.000    0.003     4  14:23           0     0.00536       0.255
  J93                  JUNCTION     0.000    0.001     4  14:24           0    0.000989       5.781
  J94                  JUNCTION     0.000    0.000     0  00:00           0           0       0.000 ltr
  J95                  JUNCTION     0.000    0.000     0  00:00           0           0       0.000 ltr
  J96                  JUNCTION     0.000    0.000     0  00:00           0           0       0.000 ltr
  J97                  JUNCTION     0.000    0.000     0  00:00           0           0       0.000 ltr
  J98                  JUNCTION     0.000    0.035     6  03:36           0       0.784      -0.047
  J99                  JUNCTION     0.000    0.033     5  01:05           0       0.618      -0.206
  O1                   OUTFALL      0.000    0.033     5  00:59           0         0.6       0.000
  
  
  **********************
  Node Surcharge Summary
  **********************
  
  Surcharging occurs when water rises above the top of the highest conduit.
  ---------------------------------------------------------------------
                                               Max. Height   Min. Depth
                                   Hours       Above Crown    Below Rim
  Node                 Type      Surcharged         Meters       Meters
  ---------------------------------------------------------------------
  J12                  JUNCTION      153.80          1.400        0.000
  J18                  JUNCTION        0.04          0.147        1.653
  J20                  JUNCTION        0.29          0.164        2.236
  J21                  JUNCTION        0.66          0.300        0.000
  J22                  JUNCTION        0.33          1.049        1.151
  J23                  JUNCTION        0.20          1.200        0.000
  J25                  JUNCTION        0.01          0.605        2.595
  J26                  JUNCTION        0.20          1.200        0.000
  J29                  JUNCTION        0.01          0.006        0.694
  J32                  JUNCTION        1.33          0.655        0.545
  J34                  JUNCTION        0.56          0.800        0.000
  J35                  JUNCTION        0.76          0.673        0.427
  J36                  JUNCTION        0.32          0.589        0.311
  J37                  JUNCTION        0.20          0.432        0.768
  J57                  JUNCTION        0.22          0.000        0.000
  J65                  JUNCTION        0.10          0.100        0.000
  J66                  JUNCTION        0.35          0.500        0.000
  J67                  JUNCTION        0.35          0.500        0.000
  J68                  JUNCTION        2.93          0.000        0.000
  J69                  JUNCTION        0.17          0.000        0.000
  J70                  JUNCTION        2.73          0.000        0.000
  J74                  JUNCTION        3.02          0.000        0.000
  J77                  JUNCTION        3.37          0.000        0.000
  J78                  JUNCTION        2.31          0.000        0.000
  J81                  JUNCTION      153.99          0.000        0.000
  J83                  JUNCTION        0.18          0.200        0.000
  J84                  JUNCTION        0.02          0.000        0.000
  J86                  JUNCTION        3.71          0.000        0.000
  J89                  JUNCTION        0.46          0.008        1.092
  J98                  JUNCTION       11.50          0.100        0.000
  J99                  JUNCTION       12.56          0.200        0.000
  
  
  *********************
  Node Flooding Summary
  *********************
  
  Flooding refers to all water that overflows a node, whether it ponds or not.
  --------------------------------------------------------------------------
                                                             Total   Maximum
                                 Maximum   Time of Max       Flood    Ponded
                        Hours       Rate    Occurrence      Volume     Depth
  Node                 Flooded       CMS   days hr:min    10^6 ltr    Meters
  --------------------------------------------------------------------------
  J12                     2.75     0.207      4  23:37       0.417     0.000
  J21                     0.30     0.109      4  23:36       0.063     0.000
  J23                     0.07     0.043      4  23:36       0.003     0.000
  J26                     0.01     0.004      4  23:36       0.000     0.000
  J34                     0.19     0.078      4  23:38       0.029     0.000
  J57                     0.21     0.068      4  23:36       0.025     0.000
  J65                     0.07     0.052      4  23:41       0.009     0.000
  J66                     0.03     0.009      4  23:41       0.001     0.000
  J67                     0.05     0.001      4  23:41       0.000     0.000
  J68                     2.93     0.182      4  23:43       0.869     0.000
  J69                     0.17     0.170      4  23:36       0.048     0.000
  J70                     2.73     0.224      4  23:37       0.743     0.000
  J74                     3.02     0.064      4  23:36       0.153     0.000
  J77                     3.37     0.014      6  02:58       0.125     0.000
  J78                     2.31     0.181      4  23:36       0.296     0.000
  J81                    48.28     0.010      6  03:07       0.175     0.000
  J83                     0.02     0.003      4  23:43       0.000     0.000
  J84                     0.02     0.019      4  23:42       0.000     0.000
  J86                     3.71     0.098      4  23:43       0.640     0.000
  J98                    10.13     0.027      6  03:38       0.166     0.000
  J99                    10.06     0.012      6  03:34       0.020     0.000
  
  
  ***********************
  Outfall Loading Summary
  ***********************
  
  -----------------------------------------------------------
                         Flow       Avg       Max       Total
                         Freq      Flow      Flow      Volume
  Outfall Node           Pcnt       CMS       CMS    10^6 ltr
  -----------------------------------------------------------
  O1                    16.16     0.012     0.033       0.600
  -----------------------------------------------------------
  System                16.16     0.012     0.033       0.600
  
  
  ********************
  Link Flow Summary
  ********************
  
  -----------------------------------------------------------------------------
                                 Maximum  Time of Max   Maximum    Max/    Max/
                                  |Flow|   Occurrence   |Veloc|    Full    Full
  Link                 Type          CMS  days hr:min     m/sec    Flow   Depth
  -----------------------------------------------------------------------------
  C1                   CONDUIT     0.022     4  23:36      1.41    0.09    0.18
  C2                   CONDUIT     0.020     4  23:37      1.09    0.05    0.21
  C3                   CONDUIT     0.095     4  23:36      2.66    0.18    0.33
  C4                   CONDUIT     0.136     4  23:36      2.64    0.30    0.43
  C5                   CONDUIT     0.057     4  23:36      1.66    0.20    0.62
  C6                   CONDUIT     0.051     4  23:36      0.80    1.38    0.85
  C7                   CONDUIT     0.048     4  23:37      1.05    0.94    0.63
  C8                   CONDUIT     0.061     4  23:36      2.97    0.29    0.33
  C9                   CONDUIT     0.058     4  23:36      2.03    0.18    0.47
  C10                  CONDUIT     0.189     4  23:37      3.01    0.48    0.51
  C11                  CONDUIT     0.187     4  23:37      1.81    0.46    0.77
  C12                  CONDUIT     0.029     4  23:36      0.61    0.16    0.64
  C13                  CONDUIT     0.023     6  02:53      0.31    0.08    0.57
  C14                  CONDUIT     0.023     6  02:55      1.56    0.04    0.28
  C15                  CONDUIT     0.094     4  23:36      2.13    0.34    0.38
  C16                  CONDUIT     0.104     4  23:36      2.70    0.26    0.35
  C17                  CONDUIT     0.129     4  23:36      1.82    2.32    1.00
  C18                  CONDUIT     0.123     4  23:36      2.02    1.27    0.81
  C19                  CONDUIT     0.219     4  23:36      3.59    0.63    0.81
  C20                  CONDUIT     0.176     4  23:32      2.49    1.08    1.00
  C21                  CONDUIT     0.176     4  23:36      2.49    1.63    1.00
  C22                  CONDUIT     0.117     6  03:03      1.67    1.67    1.00
  C23                  CONDUIT     0.110     4  23:18      2.00    1.18    0.76
  C24                  CONDUIT     0.108     6  03:03      1.88    0.53    0.76
  C25                  CONDUIT     0.102     4  23:37      1.42    0.25    0.67
  C26                  CONDUIT     0.207     4  23:37      2.25    1.39    0.71
  C27                  CONDUIT     0.234     4  23:37      3.87    0.38    0.49
  C28                  CONDUIT     0.029     4  23:36      0.62    0.13    0.62
  C29                  CONDUIT     0.101     4  23:36      1.65    1.52    0.83
  C30                  CONDUIT     0.096     4  23:36      2.17    0.73    0.60
  C31                  CONDUIT     0.092     4  23:36      1.66    0.61    0.77
  C32                  CONDUIT     0.083     4  23:37      1.30    1.16    0.87
  C33                  CONDUIT     0.316     4  23:38      3.02    0.59    0.78
  C34                  CONDUIT     0.253     4  23:41      4.18    1.33    1.00
  C35                  CONDUIT     0.046     4  23:36      1.08    0.57    1.00
  C36                  CONDUIT     0.046     4  23:36      0.83    0.53    1.00
  C37                  CONDUIT     0.276     4  23:36      2.33    1.87    0.90
  C38                  CONDUIT     0.016     4  23:38      1.28    0.15    0.23
  C39                  CONDUIT     0.015     4  23:38      0.59    0.09    0.60
  C40                  CONDUIT     0.286     4  23:37      3.29    0.91    0.65
  C41                  CONDUIT     0.288     4  23:37      4.96    0.49    0.47
  C42                  CONDUIT     0.000     0  00:00      0.00    0.00    0.29
  C43                  CONDUIT     0.042     4  23:36      1.13    0.64    0.52
  C44                  CONDUIT     0.038     4  23:36      0.83    0.48    0.63
  C45                  CONDUIT     0.035     4  23:37      0.78    1.86    0.61
  C46                  CONDUIT     0.034     4  23:38      0.95    0.40    0.51
  C47                  CONDUIT     0.321     4  23:38      1.11    0.09    0.18
  C48                  CONDUIT     0.323     4  23:39      1.32    0.07    0.15
  C49                  CONDUIT     0.321     4  23:39      1.12    0.05    0.18
  C50                  CONDUIT     0.071     4  23:36      1.95    0.74    0.52
  C51                  CONDUIT     0.069     4  23:36      2.85    0.29    0.38
  C52                  CONDUIT     0.066     4  23:37      1.26    0.33    0.70
  C53                  CONDUIT     0.040     4  23:36      0.64    0.90    0.98
  C54                  CONDUIT     0.042     4  23:29      0.62    2.52    0.94
  C55                  CONDUIT     0.044     4  23:36      0.72    2.33    0.81
  C56                  CONDUIT     0.044     4  23:36      0.88    1.05    0.67
  C57                  CONDUIT     0.044     4  23:37      0.89    0.64    0.67
  C58                  CONDUIT     0.044     4  23:37      1.11    1.10    0.70
  C59                  CONDUIT     0.010     4  23:36      1.56    0.06    0.15
  C60                  CONDUIT     0.010     4  23:36      1.96    0.03    0.38
  C61                  CONDUIT     0.372     4  23:39      1.16    0.12    0.20
  C62                  CONDUIT     0.372     4  23:39      1.52    0.08    0.15
  C63                  CONDUIT     0.372     4  23:40      2.22    0.04    0.10
  C64                  CONDUIT     0.372     4  23:40      1.74    0.03    0.54
  C65                  CONDUIT     0.429     4  23:33      0.62    0.07    1.00
  C66                  CONDUIT     0.253     4  23:29      1.69    1.00    1.00
  C67                  CONDUIT     0.029     4  22:05      0.34    4.26    0.58
  C68                  CONDUIT     0.029     4  21:53      1.12    0.07    0.54
  C69                  CONDUIT     0.030     4  23:31      0.34    1.33    0.64
  C70                  CONDUIT     0.088     4  23:36      0.83    0.28    0.70
  C71                  CONDUIT     0.031     6  02:59      0.26    3.09    0.93
  C72                  CONDUIT     0.024     4  22:09      0.29    2.45    0.55
  C73                  CONDUIT     0.024     4  22:10      0.26    0.12    0.61
  C74                  CONDUIT     0.023     6  03:19      0.25    2.00    1.00
  C75                  CONDUIT     0.027     6  03:04      0.28    3.31    0.65
  C76                  CONDUIT     0.027     6  03:05      0.69    0.17    0.26
  C77                  CONDUIT     0.000     0  00:00      0.00    0.00    0.50
  C78                  CONDUIT     0.010     6  03:07      0.23    0.11    0.61
  C79                  CONDUIT     0.017     6  03:07      0.45    0.12    0.61
  C80                  CONDUIT     0.007     4  23:36      1.15    0.03    0.52
  C81                  CONDUIT     0.024     4  23:42      0.50    0.28    1.00
  C82                  CONDUIT     0.035     4  23:53      0.47    0.34    1.00
  C83                  CONDUIT     0.015     6  03:15      0.34    0.09    1.00
  C84                  CONDUIT     0.182     4  23:43      2.57    5.36    1.00
  C85                  CONDUIT     0.131     4  23:43      0.87    1.96    1.00
  C86                  CONDUIT     0.014     6  03:08      0.30    0.18    0.75
  C87                  CONDUIT     0.033     4  22:13      0.34    1.26    0.66
  C88                  CONDUIT     0.033     4  22:13      0.68    0.20    0.66
  C89                  CONDUIT     0.000     0  00:00      0.00    0.00    0.00
  C90                  CONDUIT     0.000     0  00:00      0.00    0.00    0.00
  C91                  CONDUIT     0.000     0  00:00      0.00    0.00    0.00
  C92                  CONDUIT     0.000     0  00:00      0.00    0.00    0.16
  C93                  CONDUIT     0.001     4  14:24      0.12    0.03    0.24
  C94                  CONDUIT     0.004     4  18:14      0.27    0.06    0.39
  C95                  CONDUIT     0.001     4  14:22      0.07    0.01    0.31
  C96                  CONDUIT     0.011     6  03:18      0.25    0.15    0.74
  C97                  CONDUIT     0.035     6  03:36      0.78    0.37    1.00
  C98                  CONDUIT     0.033     5  01:05      0.80    0.34    1.00
  C99                  CONDUIT     0.033     5  00:59      0.90    0.26    1.00
  
  
  ***************************
  Flow Classification Summary
  ***************************
  
  -------------------------------------------------------------------------------------
                      Adjusted    ---------- Fraction of Time in Flow Class ---------- 
                       /Actual         Up    Down  Sub   Sup   Up    Down  Norm  Inlet 
  Conduit               Length    Dry  Dry   Dry   Crit  Crit  Crit  Crit  Ltd   Ctrl  
  -------------------------------------------------------------------------------------
  C1                      1.00   0.41  0.00  0.00  0.56  0.03  0.00  0.00  0.45  0.00
  C2                      1.00   0.42  0.08  0.00  0.48  0.03  0.00  0.00  0.59  0.00
  C3                      1.00   0.41  0.01  0.00  0.52  0.06  0.00  0.00  0.41  0.00
  C4                      1.00   0.41  0.07  0.00  0.43  0.09  0.00  0.00  0.51  0.00
  C5                      1.00   0.41  0.00  0.00  0.58  0.01  0.00  0.00  0.14  0.00
  C6                      1.00   0.41  0.00  0.00  0.59  0.00  0.00  0.00  0.56  0.00
  C7                      1.00   0.41  0.00  0.00  0.59  0.00  0.00  0.00  0.14  0.00
  C8                      1.00   0.41  0.01  0.00  0.52  0.06  0.00  0.00  0.31  0.00
  C9                      1.00   0.41  0.09  0.00  0.47  0.03  0.00  0.00  0.59  0.00
  C10                     1.00   0.64  0.02  0.00  0.25  0.09  0.00  0.00  0.26  0.00
  C11                     1.00   0.41  0.39  0.00  0.20  0.00  0.00  0.00  0.59  0.00
  C12                     1.00   0.41  0.47  0.00  0.12  0.00  0.00  0.00  0.59  0.00
  C13                     1.00   0.41  0.01  0.00  0.58  0.00  0.00  0.00  0.35  0.00
  C14                     1.00   0.41  0.01  0.00  0.51  0.07  0.00  0.00  0.49  0.00
  C15                     1.00   0.48  0.00  0.00  0.45  0.07  0.00  0.00  0.32  0.00
  C16                     1.00   0.83  0.01  0.00  0.03  0.12  0.00  0.00  0.08  0.00
  C17                     1.00   0.41  0.00  0.00  0.59  0.00  0.00  0.00  0.44  0.00
  C18                     1.00   0.41  0.00  0.00  0.54  0.05  0.00  0.00  0.48  0.00
  C19                     1.00   0.41  0.00  0.00  0.48  0.11  0.00  0.00  0.57  0.00
  C20                     1.00   0.41  0.00  0.00  0.53  0.06  0.00  0.00  0.58  0.00
  C21                     1.00   0.41  0.00  0.00  0.57  0.02  0.00  0.00  0.55  0.00
  C22                     1.00   0.41  0.00  0.00  0.57  0.02  0.00  0.00  0.53  0.00
  C23                     1.00   0.41  0.00  0.00  0.53  0.06  0.00  0.00  0.42  0.00
  C24                     1.00   0.41  0.06  0.00  0.51  0.02  0.00  0.00  0.58  0.00
  C25                     1.00   0.41  0.44  0.00  0.14  0.01  0.00  0.00  0.59  0.00
  C26                     1.00   0.41  0.00  0.00  0.53  0.06  0.00  0.00  0.40  0.00
  C27                     1.00   0.41  0.00  0.00  0.43  0.16  0.00  0.00  0.57  0.00
  C28                     1.00   0.41  0.51  0.00  0.08  0.00  0.00  0.00  0.59  0.00
  C29                     1.00   0.41  0.00  0.00  0.59  0.00  0.00  0.00  0.38  0.00
  C30                     1.00   0.41  0.00  0.00  0.53  0.06  0.00  0.00  0.37  0.00
  C31                     1.00   0.41  0.00  0.00  0.56  0.03  0.00  0.00  0.58  0.00
  C32                     1.00   0.41  0.00  0.00  0.58  0.00  0.00  0.00  0.31  0.00
  C33                     1.00   0.41  0.00  0.00  0.50  0.09  0.00  0.00  0.56  0.00
  C34                     1.00   0.41  0.00  0.00  0.58  0.01  0.00  0.00  0.57  0.00
  C35                     1.00   0.41  0.00  0.00  0.58  0.01  0.00  0.00  0.34  0.00
  C36                     1.00   0.41  0.48  0.00  0.11  0.00  0.00  0.00  0.58  0.00
  C37                     1.00   0.41  0.00  0.00  0.54  0.05  0.00  0.00  0.25  0.00
  C38                     1.00   0.41  0.00  0.00  0.57  0.02  0.00  0.00  0.57  0.00
  C39                     1.00   0.57  0.39  0.00  0.04  0.00  0.00  0.00  0.59  0.00
  C40                     1.00   0.54  0.03  0.00  0.32  0.11  0.00  0.00  0.27  0.00
  C41                     1.00   0.62  0.04  0.00  0.19  0.15  0.00  0.00  0.17  0.00
  C42                     1.00   0.67  0.33  0.00  0.00  0.00  0.00  0.00  0.00  0.00
  C43                     1.00   0.41  0.00  0.00  0.58  0.01  0.00  0.00  0.54  0.00
  C44                     1.00   0.41  0.02  0.00  0.57  0.00  0.00  0.00  0.34  0.00
  C45                     1.00   0.41  0.00  0.00  0.59  0.00  0.00  0.00  0.48  0.00
  C46                     1.00   0.41  0.00  0.00  0.58  0.01  0.00  0.00  0.58  0.00
  C47                     1.00   0.63  0.05  0.00  0.32  0.00  0.00  0.00  0.49  0.00
  C48                     1.00   0.62  0.01  0.00  0.36  0.01  0.00  0.00  0.26  0.00
  C49                     1.00   0.58  0.04  0.00  0.38  0.00  0.00  0.00  0.57  0.00
  C50                     1.00   0.41  0.00  0.00  0.55  0.04  0.00  0.00  0.52  0.00
  C51                     1.00   0.91  0.01  0.00  0.02  0.06  0.00  0.00  0.06  0.00
  C52                     1.00   0.41  0.51  0.00  0.08  0.00  0.00  0.00  0.59  0.00
  C53                     1.00   0.41  0.01  0.00  0.58  0.00  0.00  0.00  0.58  0.00
  C54                     1.00   0.41  0.00  0.00  0.59  0.00  0.00  0.00  0.54  0.00
  C55                     1.00   0.41  0.00  0.00  0.59  0.00  0.00  0.00  0.45  0.00
  C56                     1.00   0.41  0.00  0.00  0.59  0.00  0.00  0.00  0.00  0.00
  C57                     1.00   0.41  0.00  0.00  0.59  0.00  0.00  0.00  0.58  0.00
  C58                     1.00   0.41  0.00  0.00  0.59  0.00  0.00  0.00  0.22  0.00
  C59                     1.00   0.41  0.00  0.00  0.56  0.03  0.00  0.00  0.00  0.00
  C60                     1.00   0.58  0.39  0.00  0.03  0.01  0.00  0.00  0.58  0.00
  C61                     1.00   0.56  0.02  0.00  0.42  0.00  0.00  0.00  0.48  0.00
  C62                     1.00   0.57  0.00  0.00  0.42  0.02  0.00  0.00  0.13  0.00
  C63                     1.00   0.57  0.01  0.00  0.33  0.08  0.00  0.00  0.05  0.00
  C64                     1.00   0.55  0.04  0.00  0.36  0.05  0.00  0.00  0.58  0.00
  C65                     1.00   0.41  0.14  0.00  0.45  0.00  0.00  0.00  0.58  0.00
  C66                     1.00   0.41  0.21  0.00  0.38  0.00  0.00  0.00  0.59  0.00
  C67                     1.00   0.41  0.00  0.00  0.59  0.00  0.00  0.00  0.00  0.00
  C68                     1.00   0.41  0.07  0.00  0.52  0.00  0.00  0.00  0.59  0.00
  C69                     1.00   0.41  0.00  0.00  0.59  0.00  0.00  0.00  0.00  0.00
  C70                     1.00   0.41  0.04  0.00  0.55  0.00  0.00  0.00  0.59  0.00
  C71                     1.00   0.41  0.00  0.00  0.59  0.00  0.00  0.00  0.46  0.00
  C72                     1.00   0.41  0.00  0.00  0.59  0.00  0.00  0.00  0.00  0.00
  C73                     1.00   0.41  0.00  0.00  0.59  0.00  0.00  0.00  0.59  0.00
  C74                     1.00   0.41  0.00  0.00  0.59  0.00  0.00  0.00  0.41  0.00
  C75                     1.00   0.41  0.00  0.00  0.59  0.00  0.00  0.00  0.00  0.00
  C76                     1.00   0.41  0.00  0.00  0.59  0.00  0.00  0.00  0.16  0.00
  C77                     1.00   0.41  0.59  0.00  0.00  0.00  0.00  0.00  0.00  0.00
  C78                     1.00   0.41  0.00  0.00  0.59  0.00  0.00  0.00  0.59  0.00
  C79                     1.00   0.41  0.00  0.00  0.59  0.00  0.00  0.00  0.59  0.00
  C80                     1.00   0.41  0.00  0.00  0.57  0.01  0.00  0.00  0.59  0.00
  C81                     1.00   0.41  0.54  0.00  0.05  0.00  0.00  0.00  0.58  0.00
  C82                     1.00   0.41  0.00  0.00  0.59  0.00  0.00  0.00  0.58  0.00
  C83                     1.00   0.41  0.58  0.00  0.01  0.00  0.00  0.00  0.55  0.00
  C84                     1.00   0.41  0.51  0.00  0.08  0.00  0.00  0.00  0.55  0.00
  C85                     1.00   0.41  0.00  0.00  0.59  0.00  0.00  0.00  0.57  0.00
  C86                     1.00   0.41  0.55  0.00  0.04  0.00  0.00  0.00  0.56  0.00
  C87                     1.00   0.41  0.00  0.00  0.59  0.00  0.00  0.00  0.00  0.00
  C88                     1.00   0.41  0.00  0.00  0.59  0.00  0.00  0.00  0.58  0.00
  C89                     1.00   1.00  0.00  0.00  0.00  0.00  0.00  0.00  0.00  0.00
  C90                     1.00   1.00  0.00  0.00  0.00  0.00  0.00  0.00  0.00  0.00
  C91                     1.00   1.00  0.00  0.00  0.00  0.00  0.00  0.00  0.00  0.00
  C92                     1.00   0.42  0.58  0.00  0.00  0.00  0.00  0.00  0.00  0.00
  C93                     1.00   0.42  0.00  0.00  0.58  0.00  0.00  0.00  0.54  0.00
  C94                     1.00   0.42  0.00  0.00  0.58  0.00  0.00  0.00  0.54  0.00
  C95                     1.00   0.93  0.01  0.00  0.05  0.00  0.00  0.00  0.54  0.00
  C96                     1.00   0.41  0.52  0.00  0.07  0.00  0.00  0.00  0.54  0.00
  C97                     1.00   0.41  0.00  0.00  0.59  0.00  0.00  0.00  0.40  0.00
  C98                     1.00   0.41  0.00  0.00  0.58  0.00  0.00  0.00  0.47  0.00
  C99                     1.00   0.21  0.01  0.00  0.73  0.05  0.00  0.00  0.02  0.00
  
  
  *************************
  Conduit Surcharge Summary
  *************************
  
  ----------------------------------------------------------------------------
                                                           Hours        Hours 
                         --------- Hours Full --------   Above Full   Capacity
  Conduit                Both Ends  Upstream  Dnstream   Normal Flow   Limited
  ----------------------------------------------------------------------------
  C6                          0.01      0.01      0.01      0.14         0.01
  C11                         0.01      0.01    153.80      0.01         0.01
  C12                         0.01      0.01    153.97      0.01         0.01
  C13                         0.01      0.01    153.78      0.01         0.01
  C17                         0.01      0.20      0.01      0.33         0.01
  C18                         0.01      0.01      0.01      0.08         0.01
  C19                         0.01      0.01      0.20      0.01         0.01
  C20                         0.20      0.20      0.33      0.12         0.13
  C21                         0.33      0.33      0.65      0.24         0.24
  C22                         0.29      0.65      0.29      0.90         0.29
  C23                         0.01      0.29      0.01      0.55         0.01
  C24                         0.01      0.01      0.44      0.01         0.01
  C25                         0.01      0.01      0.04      0.01         0.01
  C26                         0.01      0.04      0.01      0.48         0.01
  C28                         0.01      0.01      1.33      0.01         0.01
  C29                         0.01      0.01      1.33      0.11         0.01
  C31                         0.01      0.01      0.01      0.01         0.01
  C32                         0.01      0.01      0.01      0.06         0.01
  C33                         0.01      0.01      0.56      0.01         0.01
  C34                         0.56      0.56      0.76      0.41         0.39
  C35                         0.20      0.20      0.32      0.01         0.01
  C36                         0.32      0.32      1.06      0.01         0.01
  C37                         0.01      0.76      0.01      1.00         0.01
  C39                         0.01      0.01      0.19      0.01         0.01
  C45                         0.01      0.01      0.01      0.20         0.01
  C52                         0.01      0.01      0.22      0.01         0.01
  C53                         0.01      0.01      0.22      0.01         0.01
  C54                         0.01      0.22      0.01      1.28         0.01
  C55                         0.01      0.01      0.01      1.09         0.01
  C56                         0.01      0.01      0.01      0.19         0.01
  C58                         0.01      0.01      0.01      0.22         0.01
  C64                         0.01      0.01      0.10      0.01         0.01
  C65                         0.10      0.10      0.35      0.01         0.01
  C66                         0.17      0.17      2.73      0.01         0.01
  C67                         0.01      2.73      0.01      4.51         0.01
  C69                         0.01      0.01      0.01      3.11         0.01
  C70                         0.01      0.01      3.02      0.01         0.01
  C71                         0.01      3.02      0.01      4.00         0.01
  C72                         0.01      0.01      0.01      4.02         0.01
  C73                         0.01      0.01      3.37      0.01         0.01
  C74                         2.30      3.37      2.31      3.85         0.01
  C75                         0.01      2.31      0.01      5.02         0.01
  C78                         0.01      0.01    153.99      0.01         0.01
  C79                         0.01      0.01      0.18      0.01         0.01
  C80                         0.01      0.01      0.02      0.01         0.01
  C81                         0.02      0.02      0.18      0.01         0.01
  C82                         0.18      0.18      3.18      0.01         0.01
  C83                         0.35      0.35      2.36      0.01         0.01
  C84                         2.93      2.93      3.18      2.55         0.01
  C85                         3.12      3.18      3.71      3.15         3.12
  C86                         0.01      0.01      3.71      0.01         0.01
  C87                         0.01      3.71      0.01      3.93         0.01
  C88                         0.01      0.01     11.43      0.01         0.01
  C96                         0.01      0.01     11.43      0.01         0.01
  C97                         0.46      0.46     11.49      0.01         0.01
  C98                        11.49     11.49     12.55      0.01         0.01
  C99                        12.55     12.55     99.44      0.01         0.01
  

  Analysis begun on:  Mon Nov 17 14:40:25 2025
  Analysis ended on:  Mon Nov 17 14:40:27 2025
  Total elapsed time: 00:00:02