                                   MODFLOW 6
                U.S. GEOLOGICAL SURVEY MODULAR HYDROLOGIC MODEL
                       GROUNDWATER TRANSPORT MODEL (GWT)
                            VERSION 6.4.4 02/13/2024

   MODFLOW 6 compiled Feb 13 2024 15:40:13 with Intel(R) Fortran Intel(R) 64
   Compiler Classic for applications running on Intel(R) 64, Version 2021.7.0
                             Build 20220726_000000

This software has been approved for release by the U.S. Geological 
Survey (USGS). Although the software has been subjected to rigorous 
review, the USGS reserves the right to update the software as needed 
pursuant to further analysis and review. No warranty, expressed or 
implied, is made by the USGS or the U.S. Government as to the 
functionality of the software and related material nor shall the 
fact of release constitute any such warranty. Furthermore, the 
software is released on condition that neither the USGS nor the U.S. 
Government shall be held liable for any damages resulting from its 
authorized or unauthorized use. Also refer to the USGS Water 
Resources Software User Rights Notice for complete use, copyright, 
and distribution information.


As a work of the United States Government, this USGS product is 
in the public domain within the United States. You can copy, 
modify, distribute, and perform the work, even for commercial 
purposes, all without asking permission. Additionally, USGS 
waives copyright and related rights in the work worldwide 
through CC0 1.0 Universal Public Domain Dedication 
(https://creativecommons.org/publicdomain/zero/1.0/).

The following GNU Lesser General Public License (LGPL) libraries
are used in this USGS product:

    SPARSKIT version 2.0
      ilut, luson, and qsplit 
      (https://www-users.cse.umn.edu/~saad/software/SPARSKIT/)

    RCM - Reverse Cuthill McKee Ordering
      (https://people.math.sc.edu/Burkardt/f_src/rcm/rcm.html)

    BLAS - Basic Linear Algebra Subprograms Level 1
      (https://people.math.sc.edu/Burkardt/f_src/blas1_d/blas1_d.html)

    SPARSEKIT - Sparse Matrix Utility Package
      amux, dperm, dvperm, rperm, and cperm
      (https://people.sc.fsu.edu/~jburkardt/f77_src/sparsekit/sparsekit.html)

The following BSD-3 License libraries are used in this USGS product:

    Modern Fortran DAG Library
      Copyright (c) 2018, Jacob Williams
      All rights reserved.
      (https://github.com/jacobwilliams/daglib)

MODFLOW 6 compiler options: /Isrc\libmf6core.a.p /Isrc /I..\src
/Isrc\libmf6_external.a.p /MTd /nologo /warn:general /warn:truncated_source
/stand:f08 /Zi /traceback /O2 /fpe:0 /heap-arrays:0 /traceback /fpp
/Qdiag-disable:7416 /Qdiag-disable:7025 /Qdiag-disable:5268
/Fdsrc\libmf6core.a.p\Utilities_compilerversion.F90.pdb
/module:src\libmf6core.a.p
/Fosrc/libmf6core.a.p/Utilities_compilerversion.F90.obj /c

System command used to initiate simulation:
"C:\Users\bbayrakt\OneDrive - DOI\Current\mf6.4.4_win64\bin\mf6.exe"

MODFLOW was compiled using uniform precision.

Real Variables
  KIND: 8
  TINY (smallest non-zero value):    2.225074-308
  HUGE (largest value):    1.797693+308
  PRECISION: 15
  SIZE IN BITS: 64

Integer Variables
  KIND: 4
  HUGE (largest value): 2147483647
  SIZE IN BITS: 32

Long Integer Variables
  KIND: 8
  HUGE (largest value): 9223372036854775807
  SIZE IN BITS: 64

Logical Variables
  KIND: 4
  SIZE IN BITS: 32
 
 NAMEFILE OPTIONS:
 END NAMEFILE OPTIONS:

 DIS -- STRUCTURED GRID DISCRETIZATION PACKAGE, VERSION 2 : 3/27/2014 - INPUT READ FROM MEMPATH: __INPUT__/GWT/DIS                                 

 Setting Discretization Options
    Model length unit [0=UND, 1=FEET, 2=METERS, 3=CENTIMETERS] set as 1
    XORIGIN = 2250908.490000000
    YORIGIN = 232286.3590000000
    ANGROT = 18.00000000000000
 End Setting Discretization Options

 Setting Discretization Dimensions
    NLAY = 20
    NROW = 182
    NCOL = 84
 End Setting Discretization Dimensions

 Setting Discretization Griddata
    DELR set from input file
    DELC set from input file
    TOP set from input file
    BOTM set from input file
    IDOMAIN set from input file
 End Setting Discretization Griddata


 The specified IDOMAIN results in a reduced number of cells.
 Number of user nodes: 305760
 Number of nodes in solution: 208080



 FMI -- FLOW MODEL INTERFACE, VERSION 2, 8/17/2023 INPUT READ FROM UNIT 1182


 # File generated by Flopy version 3.9.1 on 09/22/2025 at 10:13:52.
 PROCESSING FMI OPTIONS
    MASS WILL BE ADDED OR REMOVED TO COMPENSATE FOR FLOW IMBALANCE.
 END OF FMI OPTIONS

 ADV-- ADVECTION PACKAGE, VERSION 1, 8/25/2017 INPUT READ FROM UNIT 1184


 # File generated by Flopy version 3.9.1 on 09/22/2025 at 10:13:52.
 PROCESSING ADVECTION OPTIONS
    ADVECTION WEIGHTING SCHEME HAS BEEN SET TO: UPSTREAM
 END OF ADVECTION OPTIONS
    STRT set from input file

 MST -- MOBILE STORAGE AND TRANSFER PACKAGE, VERSION 1, 7/29/2020 INPUT READ FROM UNIT 1183


 # File generated by Flopy version 3.9.1 on 09/22/2025 at 10:13:52.
 PROCESSING MOBILE STORAGE AND TRANSFER OPTIONS
 END OF MOBILE STORAGE AND TRANSFER OPTIONS
 PROCESSING GRIDDATA

 OPENED external/por00.dat
 FILE TYPE:OPEN/CLOSE   UNIT 1250   STATUS:OLD                 
 FORMAT:FORMATTED              ACCESS:SEQUENTIAL          
 ACTION:READ                


 OPENED external/por01.dat
 FILE TYPE:OPEN/CLOSE   UNIT 1251   STATUS:OLD                 
 FORMAT:FORMATTED              ACCESS:SEQUENTIAL          
 ACTION:READ                


 OPENED external/por02.dat
 FILE TYPE:OPEN/CLOSE   UNIT 1252   STATUS:OLD                 
 FORMAT:FORMATTED              ACCESS:SEQUENTIAL          
 ACTION:READ                


 OPENED external/por03.dat
 FILE TYPE:OPEN/CLOSE   UNIT 1253   STATUS:OLD                 
 FORMAT:FORMATTED              ACCESS:SEQUENTIAL          
 ACTION:READ                


 OPENED external/por04.dat
 FILE TYPE:OPEN/CLOSE   UNIT 1254   STATUS:OLD                 
 FORMAT:FORMATTED              ACCESS:SEQUENTIAL          
 ACTION:READ                


 OPENED external/por05.dat
 FILE TYPE:OPEN/CLOSE   UNIT 1255   STATUS:OLD                 
 FORMAT:FORMATTED              ACCESS:SEQUENTIAL          
 ACTION:READ                


 OPENED external/por06.dat
 FILE TYPE:OPEN/CLOSE   UNIT 1256   STATUS:OLD                 
 FORMAT:FORMATTED              ACCESS:SEQUENTIAL          
 ACTION:READ                


 OPENED external/por07.dat
 FILE TYPE:OPEN/CLOSE   UNIT 1257   STATUS:OLD                 
 FORMAT:FORMATTED              ACCESS:SEQUENTIAL          
 ACTION:READ                


 OPENED external/por08.dat
 FILE TYPE:OPEN/CLOSE   UNIT 1258   STATUS:OLD                 
 FORMAT:FORMATTED              ACCESS:SEQUENTIAL          
 ACTION:READ                


 OPENED external/por09.dat
 FILE TYPE:OPEN/CLOSE   UNIT 1259   STATUS:OLD                 
 FORMAT:FORMATTED              ACCESS:SEQUENTIAL          
 ACTION:READ                


 OPENED external/por10.dat
 FILE TYPE:OPEN/CLOSE   UNIT 1260   STATUS:OLD                 
 FORMAT:FORMATTED              ACCESS:SEQUENTIAL          
 ACTION:READ                


 OPENED external/por11.dat
 FILE TYPE:OPEN/CLOSE   UNIT 1261   STATUS:OLD                 
 FORMAT:FORMATTED              ACCESS:SEQUENTIAL          
 ACTION:READ                


 OPENED external/por12.dat
 FILE TYPE:OPEN/CLOSE   UNIT 1262   STATUS:OLD                 
 FORMAT:FORMATTED              ACCESS:SEQUENTIAL          
 ACTION:READ                


 OPENED external/por13.dat
 FILE TYPE:OPEN/CLOSE   UNIT 1263   STATUS:OLD                 
 FORMAT:FORMATTED              ACCESS:SEQUENTIAL          
 ACTION:READ                


 OPENED external/por14.dat
 FILE TYPE:OPEN/CLOSE   UNIT 1264   STATUS:OLD                 
 FORMAT:FORMATTED              ACCESS:SEQUENTIAL          
 ACTION:READ                


 OPENED external/por15.dat
 FILE TYPE:OPEN/CLOSE   UNIT 1265   STATUS:OLD                 
 FORMAT:FORMATTED              ACCESS:SEQUENTIAL          
 ACTION:READ                


 OPENED external/por16.dat
 FILE TYPE:OPEN/CLOSE   UNIT 1266   STATUS:OLD                 
 FORMAT:FORMATTED              ACCESS:SEQUENTIAL          
 ACTION:READ                


 OPENED external/por17.dat
 FILE TYPE:OPEN/CLOSE   UNIT 1267   STATUS:OLD                 
 FORMAT:FORMATTED              ACCESS:SEQUENTIAL          
 ACTION:READ                


 OPENED external/por18.dat
 FILE TYPE:OPEN/CLOSE   UNIT 1268   STATUS:OLD                 
 FORMAT:FORMATTED              ACCESS:SEQUENTIAL          
 ACTION:READ                


 OPENED external/por19.dat
 FILE TYPE:OPEN/CLOSE   UNIT 1269   STATUS:OLD                 
 FORMAT:FORMATTED              ACCESS:SEQUENTIAL          
 ACTION:READ                

 END PROCESSING GRIDDATA

 SSM -- SOURCE-SINK MIXING PACKAGE, VERSION 1, 8/25/2017 INPUT READ FROM UNIT 1185


 # File generated by Flopy version 3.9.1 on 09/22/2025 at 10:13:52.
 PROCESSING SSM OPTIONS
 END OF SSM OPTIONS
 PROCESSING SOURCES
 AUX SOURCE DETECTED.
    USING AUX COLUMN 1 IN PACKAGE GHB
 AUX SOURCE DETECTED.
    USING AUX COLUMN 1 IN PACKAGE DRN
 AUX SOURCE DETECTED.
    USING AUX COLUMN 1 IN PACKAGE CHD_COAST
 AUX SOURCE DETECTED.
    USING AUX COLUMN 1 IN PACKAGE CHD_PERIMETER
 END PROCESSING SOURCES
 OPTIONAL FILEINPUT BLOCK NOT FOUND.  CONTINUING.
      THE LAST TIME STEP WILL BE PRINTED
      THE LAST TIME STEP WILL BE PRINTED
 # File generated by Flopy version 3.9.1 on 09/22/2025 at 10:13:52.

 PROCESSING OC OPTIONS

    CONCENTRATION INFORMATION WILL BE WRITTEN TO:
      UNIT NUMBER: 1270
      FILE NAME: outputs/gwt.ucn

 OPENED outputs/gwt.ucn
 FILE TYPE:DATA(BINARY)   UNIT 1270   STATUS:REPLACE             
 FORMAT:UNFORMATTED            ACCESS:STREAM              
 ACTION:READWRITE           

 END OF OC OPTIONS

start timestep kper="1" kstp="1" mode="normal"


 BEGIN READING OUTPUT CONTROL FOR STRESS PERIOD 1
      THE LAST TIME STEP WILL BE SAVED

 END READING OUTPUT CONTROL FOR STRESS PERIOD 1

end timestep


start timestep kper="1" kstp="2" mode="normal"


end timestep


start timestep kper="1" kstp="3" mode="normal"


 CONCENTRATION WILL BE SAVED ON UNIT 1270 AT END OF TIME STEP    3, STRESS PERIOD    1


  MASS BUDGET FOR ENTIRE MODEL AT END OF TIME STEP    3, STRESS PERIOD   1
  ---------------------------------------------------------------------------------------------------

     CUMULATIVE MASS      M       RATES FOR THIS TIME STEP      M/T          PACKAGE NAME    
     ------------------                 ------------------------                     ----------------

           IN:                                      IN:
           ---                                      ---
     STORAGE-AQUEOUS =  1647298955.4218       STORAGE-AQUEOUS =     5147717.9341     MST                              
                 WEL =           0.0000                   WEL =           0.0000     SSM_WEL_0                        
                 DRN =           0.0000                   DRN =           0.0000     SSM_DRN                          
                 GHB =           0.0000                   GHB =           0.0000     SSM_GHB                          
                RCHA =           0.0000                  RCHA =           0.0000     SSM_RCHA_0                       
                 CHD =  3470663916.3264                   CHD =     9382422.4219     SSM_CHD_COAST                    
                 CHD = 33919515557.6222                   CHD =   155654165.9620     SSM_CHD_PERIMETER                
     FLOW-CORRECTION =      106664.4197       FLOW-CORRECTION =          80.0726                                      

            TOTAL IN = 39037585093.7901              TOTAL IN =   170184386.3906

          OUT:                                     OUT:
          ----                                     ----
     STORAGE-AQUEOUS =  1329061950.0196       STORAGE-AQUEOUS =     3163059.1491     MST                              
                 WEL =           0.0000                   WEL =           0.0000     SSM_WEL_0                        
                 DRN =    19211940.5642                   DRN =       51068.4825     SSM_DRN                          
                 GHB =   483063481.1125                   GHB =     1313176.9227     SSM_GHB                          
                RCHA =           0.0000                  RCHA =           0.0000     SSM_RCHA_0                       
                 CHD =  2644092676.1326                   CHD =     7174529.9565     SSM_CHD_COAST                    
                 CHD = 34562092206.4786                   CHD =   158482374.0979     SSM_CHD_PERIMETER                
     FLOW-CORRECTION =       62839.4805       FLOW-CORRECTION =         177.7820                                      

           TOTAL OUT = 39037585093.7882             TOTAL OUT =   170184386.3907

            IN - OUT =       1.9760E-03              IN - OUT =      -7.5638E-05

 PERCENT DISCREPANCY =           0.00     PERCENT DISCREPANCY =          -0.00




         TIME SUMMARY AT END OF TIME STEP    3 IN STRESS PERIOD    1
                    SECONDS     MINUTES      HOURS       DAYS        YEARS
                    -----------------------------------------------------------
   TIME STEP LENGTH 1.33574E+07 2.22623E+05  3710.4      154.60     0.42327    
 STRESS PERIOD TIME 3.15360E+07 5.25600E+05  8760.0      365.00     0.99932    
         TOTAL TIME 3.15360E+07 5.25600E+05  8760.0      365.00     0.99932    


end timestep


start timestep kper="2" kstp="1" mode="normal"


 BEGIN READING OUTPUT CONTROL FOR STRESS PERIOD 2

 END READING OUTPUT CONTROL FOR STRESS PERIOD 2


  MASS BUDGET FOR ENTIRE MODEL AT END OF TIME STEP    1, STRESS PERIOD   2
  ---------------------------------------------------------------------------------------------------

     CUMULATIVE MASS      M       RATES FOR THIS TIME STEP      M/T          PACKAGE NAME    
     ------------------                 ------------------------                     ----------------

           IN:                                      IN:
           ---                                      ---
     STORAGE-AQUEOUS =  1661381042.7741       STORAGE-AQUEOUS =    14082087.3523     MST                              
                 WEL =           0.0000                   WEL =           0.0000     SSM_WEL_0                        
                 DRN =           0.0000                   DRN =           0.0000     SSM_DRN                          
                 GHB =           0.0000                   GHB =           0.0000     SSM_GHB                          
                RCHA =           0.0000                  RCHA =           0.0000     SSM_RCHA_0                       
                 CHD =  3480083843.5093                   CHD =     9419927.1829     SSM_CHD_COAST                    
                 CHD = 34089895471.8303                   CHD =   170379914.2081     SSM_CHD_PERIMETER                
     FLOW-CORRECTION =      106679.1185       FLOW-CORRECTION =          14.6988                                      

            TOTAL IN = 39231467037.2322              TOTAL IN =   193881943.4421

          OUT:                                     OUT:
          ----                                     ----
     STORAGE-AQUEOUS =  1349156759.7858       STORAGE-AQUEOUS =    20094809.7662     MST                              
                 WEL =           0.0000                   WEL =           0.0000     SSM_WEL_0                        
                 DRN =    19262738.6969                   DRN =       50798.1327     SSM_DRN                          
                 GHB =   484356332.3703                   GHB =     1292851.2578     SSM_GHB                          
                RCHA =           0.0000                  RCHA =           0.0000     SSM_RCHA_0                       
                 CHD =  2650917984.8026                   CHD =     6825308.6700     SSM_CHD_COAST                    
                 CHD = 34727710073.6950                   CHD =   165617867.2163     SSM_CHD_PERIMETER                
     FLOW-CORRECTION =       63147.8795       FLOW-CORRECTION =         308.3990                                      

           TOTAL OUT = 39231467037.2302             TOTAL OUT =   193881943.4421

            IN - OUT =       1.9760E-03              IN - OUT =       2.6822E-07

 PERCENT DISCREPANCY =           0.00     PERCENT DISCREPANCY =           0.00




         TIME SUMMARY AT END OF TIME STEP    1 IN STRESS PERIOD    2
                    SECONDS     MINUTES      HOURS       DAYS        YEARS
                    -----------------------------------------------------------
   TIME STEP LENGTH  86400.      1440.0      24.000      1.0000     2.73785E-03
 STRESS PERIOD TIME  86400.      1440.0      24.000      1.0000     2.73785E-03
         TOTAL TIME 3.16224E+07 5.27040E+05  8784.0      366.00      1.0021    


end timestep


start timestep kper="3" kstp="1" mode="normal"


 OUTPUT CONTROL FOR STRESS PERIOD 3 IS REPEATED USING SETTINGS FROM A PREVIOUS STRESS PERIOD.


  MASS BUDGET FOR ENTIRE MODEL AT END OF TIME STEP    1, STRESS PERIOD   3
  ---------------------------------------------------------------------------------------------------

     CUMULATIVE MASS      M       RATES FOR THIS TIME STEP      M/T          PACKAGE NAME    
     ------------------                 ------------------------                     ----------------

           IN:                                      IN:
           ---                                      ---
     STORAGE-AQUEOUS =  1673117562.2171       STORAGE-AQUEOUS =    11736519.4430     MST                              
                 WEL =           0.0000                   WEL =           0.0000     SSM_WEL_0                        
                 DRN =           0.0000                   DRN =           0.0000     SSM_DRN                          
                 GHB =           0.0000                   GHB =           0.0000     SSM_GHB                          
                RCHA =           0.0000                  RCHA =           0.0000     SSM_RCHA_0                       
                 CHD =  3489574426.9809                   CHD =     9490583.4716     SSM_CHD_COAST                    
                 CHD = 34249788127.6807                   CHD =   159892655.8504     SSM_CHD_PERIMETER                
     FLOW-CORRECTION =      106689.8164       FLOW-CORRECTION =          10.6979                                      

            TOTAL IN = 39412586806.6951              TOTAL IN =   181119769.4629

          OUT:                                     OUT:
          ----                                     ----
     STORAGE-AQUEOUS =  1364586684.5694       STORAGE-AQUEOUS =    15429924.7836     MST                              
                 WEL =           0.0000                   WEL =           0.0000     SSM_WEL_0                        
                 DRN =    19313359.2163                   DRN =       50620.5194     SSM_DRN                          
                 GHB =   485641323.9851                   GHB =     1284991.6148     SSM_GHB                          
                RCHA =           0.0000                  RCHA =           0.0000     SSM_RCHA_0                       
                 CHD =  2657652810.0777                   CHD =     6734825.2751     SSM_CHD_COAST                    
                 CHD = 34885329363.2948                   CHD =   157619289.5999     SSM_CHD_PERIMETER                
     FLOW-CORRECTION =       63265.5497       FLOW-CORRECTION =         117.6701                                      

           TOTAL OUT = 39412586806.6931             TOTAL OUT =   181119769.4629

            IN - OUT =       1.9836E-03              IN - OUT =      -1.1921E-07

 PERCENT DISCREPANCY =           0.00     PERCENT DISCREPANCY =          -0.00




         TIME SUMMARY AT END OF TIME STEP    1 IN STRESS PERIOD    3
                    SECONDS     MINUTES      HOURS       DAYS        YEARS
                    -----------------------------------------------------------
   TIME STEP LENGTH  86400.      1440.0      24.000      1.0000     2.73785E-03
 STRESS PERIOD TIME  86400.      1440.0      24.000      1.0000     2.73785E-03
         TOTAL TIME 3.17088E+07 5.28480E+05  8808.0      367.00      1.0048    


end timestep


start timestep kper="4" kstp="1" mode="normal"


 OUTPUT CONTROL FOR STRESS PERIOD 4 IS REPEATED USING SETTINGS FROM A PREVIOUS STRESS PERIOD.


  MASS BUDGET FOR ENTIRE MODEL AT END OF TIME STEP    1, STRESS PERIOD   4
  ---------------------------------------------------------------------------------------------------

     CUMULATIVE MASS      M       RATES FOR THIS TIME STEP      M/T          PACKAGE NAME    
     ------------------                 ------------------------                     ----------------

           IN:                                      IN:
           ---                                      ---
     STORAGE-AQUEOUS =  1683473154.0121       STORAGE-AQUEOUS =    10355591.7950     MST                              
                 WEL =           0.0000                   WEL =           0.0000     SSM_WEL_0                        
                 DRN =           0.0000                   DRN =           0.0000     SSM_DRN                          
                 GHB =           0.0000                   GHB =           0.0000     SSM_GHB                          
                RCHA =           0.0000                  RCHA =           0.0000     SSM_RCHA_0                       
                 CHD =  3499130913.8094                   CHD =     9556486.8285     SSM_CHD_COAST                    
                 CHD = 34403033923.9644                   CHD =   153245796.2837     SSM_CHD_PERIMETER                
     FLOW-CORRECTION =      106704.9800       FLOW-CORRECTION =          15.1637                                      

            TOTAL IN = 39585744696.7659              TOTAL IN =   173157890.0708

          OUT:                                     OUT:
          ----                                     ----
     STORAGE-AQUEOUS =  1377561821.3385       STORAGE-AQUEOUS =    12975136.7691     MST                              
                 WEL =           0.0000                   WEL =           0.0000     SSM_WEL_0                        
                 DRN =    19363819.2627                   DRN =       50460.0464     SSM_DRN                          
                 GHB =   486918482.0525                   GHB =     1277158.0674     SSM_GHB                          
                RCHA =           0.0000                  RCHA =           0.0000     SSM_RCHA_0                       
                 CHD =  2664310046.8792                   CHD =     6657236.8015     SSM_CHD_COAST                    
                 CHD = 35037527101.5992                   CHD =   152197738.3043     SSM_CHD_PERIMETER                
     FLOW-CORRECTION =       63425.6318       FLOW-CORRECTION =         160.0821                                      

           TOTAL OUT = 39585744696.7639             TOTAL OUT =   173157890.0708

            IN - OUT =       1.9760E-03              IN - OUT =      -6.8545E-07

 PERCENT DISCREPANCY =           0.00     PERCENT DISCREPANCY =          -0.00




         TIME SUMMARY AT END OF TIME STEP    1 IN STRESS PERIOD    4
                    SECONDS     MINUTES      HOURS       DAYS        YEARS
                    -----------------------------------------------------------
   TIME STEP LENGTH  86400.      1440.0      24.000      1.0000     2.73785E-03
 STRESS PERIOD TIME  86400.      1440.0      24.000      1.0000     2.73785E-03
         TOTAL TIME 3.17952E+07 5.29920E+05  8832.0      368.00      1.0075    


end timestep


start timestep kper="5" kstp="1" mode="normal"


 OUTPUT CONTROL FOR STRESS PERIOD 5 IS REPEATED USING SETTINGS FROM A PREVIOUS STRESS PERIOD.


  MASS BUDGET FOR ENTIRE MODEL AT END OF TIME STEP    1, STRESS PERIOD   5
  ---------------------------------------------------------------------------------------------------

     CUMULATIVE MASS      M       RATES FOR THIS TIME STEP      M/T          PACKAGE NAME    
     ------------------                 ------------------------                     ----------------

           IN:                                      IN:
           ---                                      ---
     STORAGE-AQUEOUS =  1692993602.9907       STORAGE-AQUEOUS =     9520448.9786     MST                              
                 WEL =           0.0000                   WEL =           0.0000     SSM_WEL_0                        
                 DRN =           0.0000                   DRN =           0.0000     SSM_DRN                          
                 GHB =           0.0000                   GHB =           0.0000     SSM_GHB                          
                RCHA =           0.0000                  RCHA =           0.0000     SSM_RCHA_0                       
                 CHD =  3508749075.3581                   CHD =     9618161.5486     SSM_CHD_COAST                    
                 CHD = 34551519510.8424                   CHD =   148485586.8780     SSM_CHD_PERIMETER                
     FLOW-CORRECTION =      106718.2524       FLOW-CORRECTION =          13.2724                                      

            TOTAL IN = 39753368907.4436              TOTAL IN =   167624210.6777

          OUT:                                     OUT:
          ----                                     ----
     STORAGE-AQUEOUS =  1389018314.6782       STORAGE-AQUEOUS =    11456493.3397     MST                              
                 WEL =           0.0000                   WEL =           0.0000     SSM_WEL_0                        
                 DRN =    19414133.1258                   DRN =       50313.8631     SSM_DRN                          
                 GHB =   488188010.2966                   GHB =     1269528.2441     SSM_GHB                          
                RCHA =           0.0000                  RCHA =           0.0000     SSM_RCHA_0                       
                 CHD =  2670896374.5106                   CHD =     6586327.6314     SSM_CHD_COAST                    
                 CHD = 35185788573.3815                   CHD =   148261471.7823     SSM_CHD_PERIMETER                
     FLOW-CORRECTION =       63501.4488       FLOW-CORRECTION =          75.8170                                      

           TOTAL OUT = 39753368907.4416             TOTAL OUT =   167624210.6777

            IN - OUT =       1.9760E-03              IN - OUT =       6.8545E-07

 PERCENT DISCREPANCY =           0.00     PERCENT DISCREPANCY =           0.00




         TIME SUMMARY AT END OF TIME STEP    1 IN STRESS PERIOD    5
                    SECONDS     MINUTES      HOURS       DAYS        YEARS
                    -----------------------------------------------------------
   TIME STEP LENGTH  86400.      1440.0      24.000      1.0000     2.73785E-03
 STRESS PERIOD TIME  86400.      1440.0      24.000      1.0000     2.73785E-03
         TOTAL TIME 3.18816E+07 5.31360E+05  8856.0      369.00      1.0103    


end timestep


start timestep kper="6" kstp="1" mode="normal"


 OUTPUT CONTROL FOR STRESS PERIOD 6 IS REPEATED USING SETTINGS FROM A PREVIOUS STRESS PERIOD.


  MASS BUDGET FOR ENTIRE MODEL AT END OF TIME STEP    1, STRESS PERIOD   6
  ---------------------------------------------------------------------------------------------------

     CUMULATIVE MASS      M       RATES FOR THIS TIME STEP      M/T          PACKAGE NAME    
     ------------------                 ------------------------                     ----------------

           IN:                                      IN:
           ---                                      ---
     STORAGE-AQUEOUS =  1701886258.3142       STORAGE-AQUEOUS =     8892655.3235     MST                              
                 WEL =           0.0000                   WEL =           0.0000     SSM_WEL_0                        
                 DRN =           0.0000                   DRN =           0.0000     SSM_DRN                          
                 GHB =           0.0000                   GHB =           0.0000     SSM_GHB                          
                RCHA =           0.0000                  RCHA =           0.0000     SSM_RCHA_0                       
                 CHD =  3518424417.5618                   CHD =     9675342.2037     SSM_CHD_COAST                    
                 CHD = 34696268379.5486                   CHD =   144748868.7062     SSM_CHD_PERIMETER                
     FLOW-CORRECTION =      106725.3417       FLOW-CORRECTION =           7.0893                                      

            TOTAL IN = 39916685780.7662              TOTAL IN =   163316873.3227

          OUT:                                     OUT:
          ----                                     ----
     STORAGE-AQUEOUS =  1399378234.0837       STORAGE-AQUEOUS =    10359919.4055     MST                              
                 WEL =           0.0000                   WEL =           0.0000     SSM_WEL_0                        
                 DRN =    19464312.6294                   DRN =       50179.5036     SSM_DRN                          
                 GHB =   489450103.4810                   GHB =     1262093.1844     SSM_GHB                          
                RCHA =           0.0000                  RCHA =           0.0000     SSM_RCHA_0                       
                 CHD =  2677421520.7139                   CHD =     6525146.2033     SSM_CHD_COAST                    
                 CHD = 35330908013.2284                   CHD =   145119439.8469     SSM_CHD_PERIMETER                
     FLOW-CORRECTION =       63596.6278       FLOW-CORRECTION =          95.1790                                      

           TOTAL OUT = 39916685780.7643             TOTAL OUT =   163316873.3227

            IN - OUT =       1.9760E-03              IN - OUT =       1.4901E-07

 PERCENT DISCREPANCY =           0.00     PERCENT DISCREPANCY =           0.00




         TIME SUMMARY AT END OF TIME STEP    1 IN STRESS PERIOD    6
                    SECONDS     MINUTES      HOURS       DAYS        YEARS
                    -----------------------------------------------------------
   TIME STEP LENGTH  86400.      1440.0      24.000      1.0000     2.73785E-03
 STRESS PERIOD TIME  86400.      1440.0      24.000      1.0000     2.73785E-03
         TOTAL TIME 3.19680E+07 5.32800E+05  8880.0      370.00      1.0130    


end timestep


start timestep kper="7" kstp="1" mode="normal"


 OUTPUT CONTROL FOR STRESS PERIOD 7 IS REPEATED USING SETTINGS FROM A PREVIOUS STRESS PERIOD.


  MASS BUDGET FOR ENTIRE MODEL AT END OF TIME STEP    1, STRESS PERIOD   7
  ---------------------------------------------------------------------------------------------------

     CUMULATIVE MASS      M       RATES FOR THIS TIME STEP      M/T          PACKAGE NAME    
     ------------------                 ------------------------                     ----------------

           IN:                                      IN:
           ---                                      ---
     STORAGE-AQUEOUS =  1710206353.3524       STORAGE-AQUEOUS =     8320095.0382     MST                              
                 WEL =           0.0000                   WEL =           0.0000     SSM_WEL_0                        
                 DRN =           0.0000                   DRN =           0.0000     SSM_DRN                          
                 GHB =           0.0000                   GHB =           0.0000     SSM_GHB                          
                RCHA =           0.0000                  RCHA =           0.0000     SSM_RCHA_0                       
                 CHD =  3528149200.6227                   CHD =     9724783.0609     SSM_CHD_COAST                    
                 CHD = 34838009222.7605                   CHD =   141740843.2120     SSM_CHD_PERIMETER                
     FLOW-CORRECTION =      106801.5688       FLOW-CORRECTION =          76.2271                                      

            TOTAL IN = 40076471578.3045              TOTAL IN =   159785797.5382

          OUT:                                     OUT:
          ----                                     ----
     STORAGE-AQUEOUS =  1408902703.8109       STORAGE-AQUEOUS =     9524469.7272     MST                              
                 WEL =           0.0000                   WEL =           0.0000     SSM_WEL_0                        
                 DRN =    19514367.1782                   DRN =       50054.5487     SSM_DRN                          
                 GHB =   490704968.1037                   GHB =     1254864.6227     SSM_GHB                          
                RCHA =           0.0000                  RCHA =           0.0000     SSM_RCHA_0                       
                 CHD =  2683889641.1970                   CHD =     6468120.4831     SSM_CHD_COAST                    
                 CHD = 35473395767.8884                   CHD =   142487754.6599     SSM_CHD_PERIMETER                
     FLOW-CORRECTION =       64130.1243       FLOW-CORRECTION =         533.4965                                      

           TOTAL OUT = 40076471578.3025             TOTAL OUT =   159785797.5382

            IN - OUT =       1.9836E-03              IN - OUT =      -5.9605E-08

 PERCENT DISCREPANCY =           0.00     PERCENT DISCREPANCY =          -0.00




         TIME SUMMARY AT END OF TIME STEP    1 IN STRESS PERIOD    7
                    SECONDS     MINUTES      HOURS       DAYS        YEARS
                    -----------------------------------------------------------
   TIME STEP LENGTH  86400.      1440.0      24.000      1.0000     2.73785E-03
 STRESS PERIOD TIME  86400.      1440.0      24.000      1.0000     2.73785E-03
         TOTAL TIME 3.20544E+07 5.34240E+05  8904.0      371.00      1.0157    


end timestep


start timestep kper="8" kstp="1" mode="normal"


 OUTPUT CONTROL FOR STRESS PERIOD 8 IS REPEATED USING SETTINGS FROM A PREVIOUS STRESS PERIOD.


  MASS BUDGET FOR ENTIRE MODEL AT END OF TIME STEP    1, STRESS PERIOD   8
  ---------------------------------------------------------------------------------------------------

     CUMULATIVE MASS      M       RATES FOR THIS TIME STEP      M/T          PACKAGE NAME    
     ------------------                 ------------------------                     ----------------

           IN:                                      IN:
           ---                                      ---
     STORAGE-AQUEOUS =  1718128694.4296       STORAGE-AQUEOUS =     7922341.0772     MST                              
                 WEL =           0.0000                   WEL =           0.0000     SSM_WEL_0                        
                 DRN =           0.0000                   DRN =           0.0000     SSM_DRN                          
                 GHB =           0.0000                   GHB =           0.0000     SSM_GHB                          
                RCHA =           0.0000                  RCHA =           0.0000     SSM_RCHA_0                       
                 CHD =  3537923139.8150                   CHD =     9773939.1923     SSM_CHD_COAST                    
                 CHD = 34977250317.3397                   CHD =   139241094.5792     SSM_CHD_PERIMETER                
     FLOW-CORRECTION =      106866.2652       FLOW-CORRECTION =          64.6964                                      

            TOTAL IN = 40233409017.8495              TOTAL IN =   156937439.5450

          OUT:                                     OUT:
          ----                                     ----
     STORAGE-AQUEOUS =  1417841175.3376       STORAGE-AQUEOUS =     8938471.5267     MST                              
                 WEL =           0.0000                   WEL =           0.0000     SSM_WEL_0                        
                 DRN =    19564304.5885                   DRN =       49937.4104     SSM_DRN                          
                 GHB =   491952821.3958                   GHB =     1247853.2921     SSM_GHB                          
                RCHA =           0.0000                  RCHA =           0.0000     SSM_RCHA_0                       
                 CHD =  2690309366.6444                   CHD =     6419725.4474     SSM_CHD_COAST                    
                 CHD = 35613677177.1975                   CHD =   140281409.3091     SSM_CHD_PERIMETER                
     FLOW-CORRECTION =       64172.6836       FLOW-CORRECTION =          42.5593                                      

           TOTAL OUT = 40233409017.8475             TOTAL OUT =   156937439.5450

            IN - OUT =       1.9836E-03              IN - OUT =           0.0000

 PERCENT DISCREPANCY =           0.00     PERCENT DISCREPANCY =           0.00




         TIME SUMMARY AT END OF TIME STEP    1 IN STRESS PERIOD    8
                    SECONDS     MINUTES      HOURS       DAYS        YEARS
                    -----------------------------------------------------------
   TIME STEP LENGTH  86400.      1440.0      24.000      1.0000     2.73785E-03
 STRESS PERIOD TIME  86400.      1440.0      24.000      1.0000     2.73785E-03
         TOTAL TIME 3.21408E+07 5.35680E+05  8928.0      372.00      1.0185    


end timestep


start timestep kper="9" kstp="1" mode="normal"


 OUTPUT CONTROL FOR STRESS PERIOD 9 IS REPEATED USING SETTINGS FROM A PREVIOUS STRESS PERIOD.


  MASS BUDGET FOR ENTIRE MODEL AT END OF TIME STEP    1, STRESS PERIOD   9
  ---------------------------------------------------------------------------------------------------

     CUMULATIVE MASS      M       RATES FOR THIS TIME STEP      M/T          PACKAGE NAME    
     ------------------                 ------------------------                     ----------------

           IN:                                      IN:
           ---                                      ---
     STORAGE-AQUEOUS =  1725740045.7284       STORAGE-AQUEOUS =     7611351.2988     MST                              
                 WEL =           0.0000                   WEL =           0.0000     SSM_WEL_0                        
                 DRN =           0.0000                   DRN =           0.0000     SSM_DRN                          
                 GHB =           0.0000                   GHB =           0.0000     SSM_GHB                          
                RCHA =           0.0000                  RCHA =           0.0000     SSM_RCHA_0                       
                 CHD =  3547742121.9767                   CHD =     9818982.1617     SSM_CHD_COAST                    
                 CHD = 35114368235.6288                   CHD =   137117918.2891     SSM_CHD_PERIMETER                
     FLOW-CORRECTION =      106894.8643       FLOW-CORRECTION =          28.5992                                      

            TOTAL IN = 40387957298.1983              TOTAL IN =   154548280.3488

          OUT:                                     OUT:
          ----                                     ----
     STORAGE-AQUEOUS =  1426287305.1009       STORAGE-AQUEOUS =     8446129.7632     MST                              
                 WEL =           0.0000                   WEL =           0.0000     SSM_WEL_0                        
                 DRN =    19614132.3384                   DRN =       49827.7498     SSM_DRN                          
                 GHB =   493193860.3574                   GHB =     1241038.9616     SSM_GHB                          
                RCHA =           0.0000                  RCHA =           0.0000     SSM_RCHA_0                       
                 CHD =  2696682564.2322                   CHD =     6373197.5878     SSM_CHD_COAST                    
                 CHD = 35752115212.2452                   CHD =   138438035.0477     SSM_CHD_PERIMETER                
     FLOW-CORRECTION =       64223.9222       FLOW-CORRECTION =          51.2386                                      

           TOTAL OUT = 40387957298.1963             TOTAL OUT =   154548280.3488

            IN - OUT =       1.9760E-03              IN - OUT =      -1.7881E-07

 PERCENT DISCREPANCY =           0.00     PERCENT DISCREPANCY =          -0.00




         TIME SUMMARY AT END OF TIME STEP    1 IN STRESS PERIOD    9
                    SECONDS     MINUTES      HOURS       DAYS        YEARS
                    -----------------------------------------------------------
   TIME STEP LENGTH  86400.      1440.0      24.000      1.0000     2.73785E-03
 STRESS PERIOD TIME  86400.      1440.0      24.000      1.0000     2.73785E-03
         TOTAL TIME 3.22272E+07 5.37120E+05  8952.0      373.00      1.0212    


end timestep


start timestep kper="10" kstp="1" mode="normal"


 OUTPUT CONTROL FOR STRESS PERIOD 10 IS REPEATED USING SETTINGS FROM A PREVIOUS STRESS PERIOD.


  MASS BUDGET FOR ENTIRE MODEL AT END OF TIME STEP    1, STRESS PERIOD  10
  ---------------------------------------------------------------------------------------------------

     CUMULATIVE MASS      M       RATES FOR THIS TIME STEP      M/T          PACKAGE NAME    
     ------------------                 ------------------------                     ----------------

           IN:                                      IN:
           ---                                      ---
     STORAGE-AQUEOUS =  1734094525.7733       STORAGE-AQUEOUS =     8354480.0449     MST                              
                 WEL =           0.0000                   WEL =           0.0000     SSM_WEL_0                        
                 DRN =           0.0000                   DRN =           0.0000     SSM_DRN                          
                 GHB =           0.0000                   GHB =           0.0000     SSM_GHB                          
                RCHA =           0.0000                  RCHA =           0.0000     SSM_RCHA_0                       
                 CHD =  3557031346.0468                   CHD =     9289224.0701     SSM_CHD_COAST                    
                 CHD = 35249756380.1529                   CHD =   135388144.5240     SSM_CHD_PERIMETER                
     FLOW-CORRECTION =      106941.1886       FLOW-CORRECTION =          46.3242                                      

            TOTAL IN = 40540989193.1615              TOTAL IN =   153031894.9633

          OUT:                                     OUT:
          ----                                     ----
     STORAGE-AQUEOUS =  1434089195.3949       STORAGE-AQUEOUS =     7801890.2940     MST                              
                 WEL =           0.0000                   WEL =           0.0000     SSM_WEL_0                        
                 DRN =    19673556.5114                   DRN =       59424.1730     SSM_DRN                          
                 GHB =   494511309.4038                   GHB =     1317449.0464     SSM_GHB                          
                RCHA =           0.0000                  RCHA =           0.0000     SSM_RCHA_0                       
                 CHD =  2703735220.4720                   CHD =     7052656.2398     SSM_CHD_COAST                    
                 CHD = 35888915199.9359                   CHD =   136799987.6907     SSM_CHD_PERIMETER                
     FLOW-CORRECTION =       64711.4416       FLOW-CORRECTION =         487.5193                                      

           TOTAL OUT = 40540989193.1596             TOTAL OUT =   153031894.9633

            IN - OUT =       1.9836E-03              IN - OUT =       3.8743E-07

 PERCENT DISCREPANCY =           0.00     PERCENT DISCREPANCY =           0.00




         TIME SUMMARY AT END OF TIME STEP    1 IN STRESS PERIOD   10
                    SECONDS     MINUTES      HOURS       DAYS        YEARS
                    -----------------------------------------------------------
   TIME STEP LENGTH  86400.      1440.0      24.000      1.0000     2.73785E-03
 STRESS PERIOD TIME  86400.      1440.0      24.000      1.0000     2.73785E-03
         TOTAL TIME 3.23136E+07 5.38560E+05  8976.0      374.00      1.0240    


end timestep


start timestep kper="11" kstp="1" mode="normal"


 OUTPUT CONTROL FOR STRESS PERIOD 11 IS REPEATED USING SETTINGS FROM A PREVIOUS STRESS PERIOD.


  MASS BUDGET FOR ENTIRE MODEL AT END OF TIME STEP    1, STRESS PERIOD  11
  ---------------------------------------------------------------------------------------------------

     CUMULATIVE MASS      M       RATES FOR THIS TIME STEP      M/T          PACKAGE NAME    
     ------------------                 ------------------------                     ----------------

           IN:                                      IN:
           ---                                      ---
     STORAGE-AQUEOUS =  1741288752.2525       STORAGE-AQUEOUS =     7194226.4792     MST                              
                 WEL =           0.0000                   WEL =           0.0000     SSM_WEL_0                        
                 DRN =           0.0000                   DRN =           0.0000     SSM_DRN                          
                 GHB =           0.0000                   GHB =           0.0000     SSM_GHB                          
                RCHA =           0.0000                  RCHA =           0.0000     SSM_RCHA_0                       
                 CHD =  3566692309.8143                   CHD =     9660963.7675     SSM_CHD_COAST                    
                 CHD = 35383643882.8726                   CHD =   133887502.7197     SSM_CHD_PERIMETER                
     FLOW-CORRECTION =      106952.0568       FLOW-CORRECTION =          10.8682                                      

            TOTAL IN = 40691731896.9962              TOTAL IN =   150742703.8346

          OUT:                                     OUT:
          ----                                     ----
     STORAGE-AQUEOUS =  1441467359.9735       STORAGE-AQUEOUS =     7378164.5787     MST                              
                 WEL =           0.0000                   WEL =           0.0000     SSM_WEL_0                        
                 DRN =    19723865.8606                   DRN =       50309.3492     SSM_DRN                          
                 GHB =   495771771.4677                   GHB =     1260462.0639     SSM_GHB                          
                RCHA =           0.0000                  RCHA =           0.0000     SSM_RCHA_0                       
                 CHD =  2710284713.7607                   CHD =     6549493.2887     SSM_CHD_COAST                    
                 CHD = 36024419245.4516                   CHD =   135504045.5157     SSM_CHD_PERIMETER                
     FLOW-CORRECTION =       64940.4801       FLOW-CORRECTION =         229.0385                                      

           TOTAL OUT = 40691731896.9942             TOTAL OUT =   150742703.8346

            IN - OUT =       1.9836E-03              IN - OUT =      -1.1921E-07

 PERCENT DISCREPANCY =           0.00     PERCENT DISCREPANCY =          -0.00




         TIME SUMMARY AT END OF TIME STEP    1 IN STRESS PERIOD   11
                    SECONDS     MINUTES      HOURS       DAYS        YEARS
                    -----------------------------------------------------------
   TIME STEP LENGTH  86400.      1440.0      24.000      1.0000     2.73785E-03
 STRESS PERIOD TIME  86400.      1440.0      24.000      1.0000     2.73785E-03
         TOTAL TIME 3.24000E+07 5.40000E+05  9000.0      375.00      1.0267    


end timestep


start timestep kper="12" kstp="1" mode="normal"


 OUTPUT CONTROL FOR STRESS PERIOD 12 IS REPEATED USING SETTINGS FROM A PREVIOUS STRESS PERIOD.


  MASS BUDGET FOR ENTIRE MODEL AT END OF TIME STEP    1, STRESS PERIOD  12
  ---------------------------------------------------------------------------------------------------

     CUMULATIVE MASS      M       RATES FOR THIS TIME STEP      M/T          PACKAGE NAME    
     ------------------                 ------------------------                     ----------------

           IN:                                      IN:
           ---                                      ---
     STORAGE-AQUEOUS =  1752337196.3627       STORAGE-AQUEOUS =    11048444.1102     MST                              
                 WEL =           0.0000                   WEL =           0.0000     SSM_WEL_0                        
                 DRN =           0.0000                   DRN =           0.0000     SSM_DRN                          
                 GHB =           0.0000                   GHB =           0.0000     SSM_GHB                          
                RCHA =           0.0000                  RCHA =           0.0000     SSM_RCHA_0                       
                 CHD =  3574948194.6750                   CHD =     8255884.8607     SSM_CHD_COAST                    
                 CHD = 35516615624.4344                   CHD =   132971741.5617     SSM_CHD_PERIMETER                
     FLOW-CORRECTION =      106954.2565       FLOW-CORRECTION =           2.1997                                      

            TOTAL IN = 40844007969.7286              TOTAL IN =   152276072.7324

          OUT:                                     OUT:
          ----                                     ----
     STORAGE-AQUEOUS =  1448562908.3438       STORAGE-AQUEOUS =     7095548.3702     MST                              
                 WEL =           0.0000                   WEL =           0.0000     SSM_WEL_0                        
                 DRN =    19806203.4260                   DRN =       82337.5654     SSM_DRN                          
                 GHB =   497283284.8547                   GHB =     1511513.3870     SSM_GHB                          
                RCHA =           0.0000                  RCHA =           0.0000     SSM_RCHA_0                       
                 CHD =  2719618840.3325                   CHD =     9334126.5718     SSM_CHD_COAST                    
                 CHD = 36158671748.7263                   CHD =   134252503.2747     SSM_CHD_PERIMETER                
     FLOW-CORRECTION =       64984.0434       FLOW-CORRECTION =          43.5633                                      

           TOTAL OUT = 40844007969.7266             TOTAL OUT =   152276072.7324

            IN - OUT =       1.9760E-03              IN - OUT =      -4.4703E-07

 PERCENT DISCREPANCY =           0.00     PERCENT DISCREPANCY =          -0.00




         TIME SUMMARY AT END OF TIME STEP    1 IN STRESS PERIOD   12
                    SECONDS     MINUTES      HOURS       DAYS        YEARS
                    -----------------------------------------------------------
   TIME STEP LENGTH  86400.      1440.0      24.000      1.0000     2.73785E-03
 STRESS PERIOD TIME  86400.      1440.0      24.000      1.0000     2.73785E-03
         TOTAL TIME 3.24864E+07 5.41440E+05  9024.0      376.00      1.0294    


end timestep


start timestep kper="13" kstp="1" mode="normal"


 OUTPUT CONTROL FOR STRESS PERIOD 13 IS REPEATED USING SETTINGS FROM A PREVIOUS STRESS PERIOD.


  MASS BUDGET FOR ENTIRE MODEL AT END OF TIME STEP    1, STRESS PERIOD  13
  ---------------------------------------------------------------------------------------------------

     CUMULATIVE MASS      M       RATES FOR THIS TIME STEP      M/T          PACKAGE NAME    
     ------------------                 ------------------------                     ----------------

           IN:                                      IN:
           ---                                      ---
     STORAGE-AQUEOUS =  1762680970.4982       STORAGE-AQUEOUS =    10343774.1355     MST                              
                 WEL =           0.0000                   WEL =           0.0000     SSM_WEL_0                        
                 DRN =           0.0000                   DRN =           0.0000     SSM_DRN                          
                 GHB =           0.0000                   GHB =           0.0000     SSM_GHB                          
                RCHA =           0.0000                  RCHA =           0.0000     SSM_RCHA_0                       
                 CHD =  3582958499.3786                   CHD =     8010304.7036     SSM_CHD_COAST                    
                 CHD = 35648767713.2206                   CHD =   132152088.7862     SSM_CHD_PERIMETER                
     FLOW-CORRECTION =      106963.4679       FLOW-CORRECTION =           9.2114                                      

            TOTAL IN = 40994514146.5654              TOTAL IN =   150506176.8368

          OUT:                                     OUT:
          ----                                     ----
     STORAGE-AQUEOUS =  1454949084.2418       STORAGE-AQUEOUS =     6386175.8980     MST                              
                 WEL =           0.0000                   WEL =           0.0000     SSM_WEL_0                        
                 DRN =    19876495.0188                   DRN =       70291.5928     SSM_DRN                          
                 GHB =   498791691.0812                   GHB =     1508406.2265     SSM_GHB                          
                RCHA =           0.0000                  RCHA =           0.0000     SSM_RCHA_0                       
                 CHD =  2728984395.6650                   CHD =     9365555.3326     SSM_CHD_COAST                    
                 CHD = 36291847294.7597                   CHD =   133175546.0334     SSM_CHD_PERIMETER                
     FLOW-CORRECTION =       65185.7968       FLOW-CORRECTION =         201.7534                                      

           TOTAL OUT = 40994514146.5634             TOTAL OUT =   150506176.8368

            IN - OUT =       1.9836E-03              IN - OUT =      -3.2783E-07

 PERCENT DISCREPANCY =           0.00     PERCENT DISCREPANCY =          -0.00




         TIME SUMMARY AT END OF TIME STEP    1 IN STRESS PERIOD   13
                    SECONDS     MINUTES      HOURS       DAYS        YEARS
                    -----------------------------------------------------------
   TIME STEP LENGTH  86400.      1440.0      24.000      1.0000     2.73785E-03
 STRESS PERIOD TIME  86400.      1440.0      24.000      1.0000     2.73785E-03
         TOTAL TIME 3.25728E+07 5.42880E+05  9048.0      377.00      1.0322    


end timestep


start timestep kper="14" kstp="1" mode="normal"


 OUTPUT CONTROL FOR STRESS PERIOD 14 IS REPEATED USING SETTINGS FROM A PREVIOUS STRESS PERIOD.


  MASS BUDGET FOR ENTIRE MODEL AT END OF TIME STEP    1, STRESS PERIOD  14
  ---------------------------------------------------------------------------------------------------

     CUMULATIVE MASS      M       RATES FOR THIS TIME STEP      M/T          PACKAGE NAME    
     ------------------                 ------------------------                     ----------------

           IN:                                      IN:
           ---                                      ---
     STORAGE-AQUEOUS =  1770684120.6812       STORAGE-AQUEOUS =     8003150.1829     MST                              
                 WEL =           0.0000                   WEL =           0.0000     SSM_WEL_0                        
                 DRN =           0.0000                   DRN =           0.0000     SSM_DRN                          
                 GHB =           0.0000                   GHB =           0.0000     SSM_GHB                          
                RCHA =           0.0000                  RCHA =           0.0000     SSM_RCHA_0                       
                 CHD =  3591622799.2009                   CHD =     8664299.8223     SSM_CHD_COAST                    
                 CHD = 35780086210.1780                   CHD =   131318496.9574     SSM_CHD_PERIMETER                
     FLOW-CORRECTION =      106975.2454       FLOW-CORRECTION =          11.7775                                      

            TOTAL IN = 41142500105.3054              TOTAL IN =   147985958.7401

          OUT:                                     OUT:
          ----                                     ----
     STORAGE-AQUEOUS =  1461013043.9032       STORAGE-AQUEOUS =     6063959.6614     MST                              
                 WEL =           0.0000                   WEL =           0.0000     SSM_WEL_0                        
                 DRN =    19929693.6733                   DRN =       53198.6545     SSM_DRN                          
                 GHB =   500189138.9915                   GHB =     1397447.9103     SSM_GHB                          
                RCHA =           0.0000                  RCHA =           0.0000     SSM_RCHA_0                       
                 CHD =  2736957668.8161                   CHD =     7973273.1511     SSM_CHD_COAST                    
                 CHD = 36424345211.3589                   CHD =   132497916.5992     SSM_CHD_PERIMETER                
     FLOW-CORRECTION =       65348.5604       FLOW-CORRECTION =         162.7636                                      

           TOTAL OUT = 41142500105.3034             TOTAL OUT =   147985958.7401

            IN - OUT =       1.9913E-03              IN - OUT =      -4.7684E-07

 PERCENT DISCREPANCY =           0.00     PERCENT DISCREPANCY =          -0.00




         TIME SUMMARY AT END OF TIME STEP    1 IN STRESS PERIOD   14
                    SECONDS     MINUTES      HOURS       DAYS        YEARS
                    -----------------------------------------------------------
   TIME STEP LENGTH  86400.      1440.0      24.000      1.0000     2.73785E-03
 STRESS PERIOD TIME  86400.      1440.0      24.000      1.0000     2.73785E-03
         TOTAL TIME 3.26592E+07 5.44320E+05  9072.0      378.00      1.0349    


end timestep


start timestep kper="15" kstp="1" mode="normal"


 OUTPUT CONTROL FOR STRESS PERIOD 15 IS REPEATED USING SETTINGS FROM A PREVIOUS STRESS PERIOD.


  MASS BUDGET FOR ENTIRE MODEL AT END OF TIME STEP    1, STRESS PERIOD  15
  ---------------------------------------------------------------------------------------------------

     CUMULATIVE MASS      M       RATES FOR THIS TIME STEP      M/T          PACKAGE NAME    
     ------------------                 ------------------------                     ----------------

           IN:                                      IN:
           ---                                      ---
     STORAGE-AQUEOUS =  1778176815.6392       STORAGE-AQUEOUS =     7492694.9580     MST                              
                 WEL =           0.0000                   WEL =           0.0000     SSM_WEL_0                        
                 DRN =           0.0000                   DRN =           0.0000     SSM_DRN                          
                 GHB =           0.0000                   GHB =           0.0000     SSM_GHB                          
                RCHA =           0.0000                  RCHA =           0.0000     SSM_RCHA_0                       
                 CHD =  3600439244.0443                   CHD =     8816444.8434     SSM_CHD_COAST                    
                 CHD = 35910744524.0119                   CHD =   130658313.8339     SSM_CHD_PERIMETER                
     FLOW-CORRECTION =      107010.7307       FLOW-CORRECTION =          35.4853                                      

            TOTAL IN = 41289467594.4260              TOTAL IN =   146967489.1206

          OUT:                                     OUT:
          ----                                     ----
     STORAGE-AQUEOUS =  1466917874.4312       STORAGE-AQUEOUS =     5904830.5280     MST                              
                 WEL =           0.0000                   WEL =           0.0000     SSM_WEL_0                        
                 DRN =    19982306.8156                   DRN =       52613.1423     SSM_DRN                          
                 GHB =   501570070.1549                   GHB =     1380931.1634     SSM_GHB                          
                RCHA =           0.0000                  RCHA =           0.0000     SSM_RCHA_0                       
                 CHD =  2744662680.3266                   CHD =     7705011.5105     SSM_CHD_COAST                    
                 CHD = 36556269266.8110                   CHD =   131924055.4521     SSM_CHD_PERIMETER                
     FLOW-CORRECTION =       65395.8847       FLOW-CORRECTION =          47.3243                                      

           TOTAL OUT = 41289467594.4240             TOTAL OUT =   146967489.1206

            IN - OUT =       1.9836E-03              IN - OUT =       5.9605E-07

 PERCENT DISCREPANCY =           0.00     PERCENT DISCREPANCY =           0.00




         TIME SUMMARY AT END OF TIME STEP    1 IN STRESS PERIOD   15
                    SECONDS     MINUTES      HOURS       DAYS        YEARS
                    -----------------------------------------------------------
   TIME STEP LENGTH  86400.      1440.0      24.000      1.0000     2.73785E-03
 STRESS PERIOD TIME  86400.      1440.0      24.000      1.0000     2.73785E-03
         TOTAL TIME 3.27456E+07 5.45760E+05  9096.0      379.00      1.0376    


end timestep


start timestep kper="16" kstp="1" mode="normal"


 OUTPUT CONTROL FOR STRESS PERIOD 16 IS REPEATED USING SETTINGS FROM A PREVIOUS STRESS PERIOD.


  MASS BUDGET FOR ENTIRE MODEL AT END OF TIME STEP    1, STRESS PERIOD  16
  ---------------------------------------------------------------------------------------------------

     CUMULATIVE MASS      M       RATES FOR THIS TIME STEP      M/T          PACKAGE NAME    
     ------------------                 ------------------------                     ----------------

           IN:                                      IN:
           ---                                      ---
     STORAGE-AQUEOUS =  1785239984.5356       STORAGE-AQUEOUS =     7063168.8965     MST                              
                 WEL =           0.0000                   WEL =           0.0000     SSM_WEL_0                        
                 DRN =           0.0000                   DRN =           0.0000     SSM_DRN                          
                 GHB =           0.0000                   GHB =           0.0000     SSM_GHB                          
                RCHA =           0.0000                  RCHA =           0.0000     SSM_RCHA_0                       
                 CHD =  3609378145.4405                   CHD =     8938901.3962     SSM_CHD_COAST                    
                 CHD = 36040722691.4179                   CHD =   129978167.4060     SSM_CHD_PERIMETER                
     FLOW-CORRECTION =      107058.4416       FLOW-CORRECTION =          47.7109                                      

            TOTAL IN = 41435447879.8356              TOTAL IN =   145980285.4096

          OUT:                                     OUT:
          ----                                     ----
     STORAGE-AQUEOUS =  1472693042.7928       STORAGE-AQUEOUS =     5775168.3617     MST                              
                 WEL =           0.0000                   WEL =           0.0000     SSM_WEL_0                        
                 DRN =    20034470.8586                   DRN =       52164.0430     SSM_DRN                          
                 GHB =   502936654.8158                   GHB =     1366584.6609     SSM_GHB                          
                RCHA =           0.0000                  RCHA =           0.0000     SSM_RCHA_0                       
                 CHD =  2752153569.9411                   CHD =     7490889.6145     SSM_CHD_COAST                    
                 CHD = 36687564727.7855                   CHD =   131295460.9746     SSM_CHD_PERIMETER                
     FLOW-CORRECTION =       65413.6398       FLOW-CORRECTION =          17.7551                                      

           TOTAL OUT = 41435447879.8336             TOTAL OUT =   145980285.4096

            IN - OUT =       1.9913E-03              IN - OUT =      -4.1723E-07

 PERCENT DISCREPANCY =           0.00     PERCENT DISCREPANCY =          -0.00




         TIME SUMMARY AT END OF TIME STEP    1 IN STRESS PERIOD   16
                    SECONDS     MINUTES      HOURS       DAYS        YEARS
                    -----------------------------------------------------------
   TIME STEP LENGTH  86400.      1440.0      24.000      1.0000     2.73785E-03
 STRESS PERIOD TIME  86400.      1440.0      24.000      1.0000     2.73785E-03
         TOTAL TIME 3.28320E+07 5.47200E+05  9120.0      380.00      1.0404    


end timestep


start timestep kper="17" kstp="1" mode="normal"


 OUTPUT CONTROL FOR STRESS PERIOD 17 IS REPEATED USING SETTINGS FROM A PREVIOUS STRESS PERIOD.


  MASS BUDGET FOR ENTIRE MODEL AT END OF TIME STEP    1, STRESS PERIOD  17
  ---------------------------------------------------------------------------------------------------

     CUMULATIVE MASS      M       RATES FOR THIS TIME STEP      M/T          PACKAGE NAME    
     ------------------                 ------------------------                     ----------------

           IN:                                      IN:
           ---                                      ---
     STORAGE-AQUEOUS =  1791961024.1843       STORAGE-AQUEOUS =     6721039.6486     MST                              
                 WEL =           0.0000                   WEL =           0.0000     SSM_WEL_0                        
                 DRN =           0.0000                   DRN =           0.0000     SSM_DRN                          
                 GHB =           0.0000                   GHB =           0.0000     SSM_GHB                          
                RCHA =           0.0000                  RCHA =           0.0000     SSM_RCHA_0                       
                 CHD =  3618426113.3426                   CHD =     9047967.9021     SSM_CHD_COAST                    
                 CHD = 36170058518.7479                   CHD =   129335827.3300     SSM_CHD_PERIMETER                
     FLOW-CORRECTION =      107104.0343       FLOW-CORRECTION =          45.5927                                      

            TOTAL IN = 41580552760.3091              TOTAL IN =   145104880.4734

          OUT:                                     OUT:
          ----                                     ----
     STORAGE-AQUEOUS =  1478384598.6673       STORAGE-AQUEOUS =     5691555.8745     MST                              
                 WEL =           0.0000                   WEL =           0.0000     SSM_WEL_0                        
                 DRN =    20086269.6396                   DRN =       51798.7810     SSM_DRN                          
                 GHB =   504290205.5189                   GHB =     1353550.7031     SSM_GHB                          
                RCHA =           0.0000                  RCHA =           0.0000     SSM_RCHA_0                       
                 CHD =  2759460881.1611                   CHD =     7307311.2200     SSM_CHD_COAST                    
                 CHD = 36818265231.2302                   CHD =   130700503.4447     SSM_CHD_PERIMETER                
     FLOW-CORRECTION =       65574.0900       FLOW-CORRECTION =         160.4502                                      

           TOTAL OUT = 41580552760.3071             TOTAL OUT =   145104880.4734

            IN - OUT =       1.9913E-03              IN - OUT =      -5.9605E-08

 PERCENT DISCREPANCY =           0.00     PERCENT DISCREPANCY =          -0.00




         TIME SUMMARY AT END OF TIME STEP    1 IN STRESS PERIOD   17
                    SECONDS     MINUTES      HOURS       DAYS        YEARS
                    -----------------------------------------------------------
   TIME STEP LENGTH  86400.      1440.0      24.000      1.0000     2.73785E-03
 STRESS PERIOD TIME  86400.      1440.0      24.000      1.0000     2.73785E-03
         TOTAL TIME 3.29184E+07 5.48640E+05  9144.0      381.00      1.0431    


end timestep


start timestep kper="18" kstp="1" mode="normal"


 OUTPUT CONTROL FOR STRESS PERIOD 18 IS REPEATED USING SETTINGS FROM A PREVIOUS STRESS PERIOD.


  MASS BUDGET FOR ENTIRE MODEL AT END OF TIME STEP    1, STRESS PERIOD  18
  ---------------------------------------------------------------------------------------------------

     CUMULATIVE MASS      M       RATES FOR THIS TIME STEP      M/T          PACKAGE NAME    
     ------------------                 ------------------------                     ----------------

           IN:                                      IN:
           ---                                      ---
     STORAGE-AQUEOUS =  1798400036.9881       STORAGE-AQUEOUS =     6439012.8038     MST                              
                 WEL =           0.0000                   WEL =           0.0000     SSM_WEL_0                        
                 DRN =           0.0000                   DRN =           0.0000     SSM_DRN                          
                 GHB =           0.0000                   GHB =           0.0000     SSM_GHB                          
                RCHA =           0.0000                  RCHA =           0.0000     SSM_RCHA_0                       
                 CHD =  3627565805.7857                   CHD =     9139692.4431     SSM_CHD_COAST                    
                 CHD = 36298778190.1062                   CHD =   128719671.3582     SSM_CHD_PERIMETER                
     FLOW-CORRECTION =      107121.0320       FLOW-CORRECTION =          16.9976                                      

            TOTAL IN = 41724851153.9118              TOTAL IN =   144298393.6028

          OUT:                                     OUT:
          ----                                     ----
     STORAGE-AQUEOUS =  1484037412.6470       STORAGE-AQUEOUS =     5652813.9797     MST                              
                 WEL =           0.0000                   WEL =           0.0000     SSM_WEL_0                        
                 DRN =    20137760.5296                   DRN =       51490.8901     SSM_DRN                          
                 GHB =   505631718.3019                   GHB =     1341512.7830     SSM_GHB                          
                RCHA =           0.0000                  RCHA =           0.0000     SSM_RCHA_0                       
                 CHD =  2766611970.7625                   CHD =     7151089.6014     SSM_CHD_COAST                    
                 CHD = 36948366670.8154                   CHD =   130101439.5852     SSM_CHD_PERIMETER                
     FLOW-CORRECTION =       65620.8533       FLOW-CORRECTION =          46.7633                                      

           TOTAL OUT = 41724851153.9099             TOTAL OUT =   144298393.6028

            IN - OUT =       1.9836E-03              IN - OUT =      -1.7881E-07

 PERCENT DISCREPANCY =           0.00     PERCENT DISCREPANCY =          -0.00




         TIME SUMMARY AT END OF TIME STEP    1 IN STRESS PERIOD   18
                    SECONDS     MINUTES      HOURS       DAYS        YEARS
                    -----------------------------------------------------------
   TIME STEP LENGTH  86400.      1440.0      24.000      1.0000     2.73785E-03
 STRESS PERIOD TIME  86400.      1440.0      24.000      1.0000     2.73785E-03
         TOTAL TIME 3.30048E+07 5.50080E+05  9168.0      382.00      1.0459    


end timestep


start timestep kper="19" kstp="1" mode="normal"


 OUTPUT CONTROL FOR STRESS PERIOD 19 IS REPEATED USING SETTINGS FROM A PREVIOUS STRESS PERIOD.


  MASS BUDGET FOR ENTIRE MODEL AT END OF TIME STEP    1, STRESS PERIOD  19
  ---------------------------------------------------------------------------------------------------

     CUMULATIVE MASS      M       RATES FOR THIS TIME STEP      M/T          PACKAGE NAME    
     ------------------                 ------------------------                     ----------------

           IN:                                      IN:
           ---                                      ---
     STORAGE-AQUEOUS =  1804613185.7830       STORAGE-AQUEOUS =     6213148.7950     MST                              
                 WEL =           0.0000                   WEL =           0.0000     SSM_WEL_0                        
                 DRN =           0.0000                   DRN =           0.0000     SSM_DRN                          
                 GHB =           0.0000                   GHB =           0.0000     SSM_GHB                          
                RCHA =           0.0000                  RCHA =           0.0000     SSM_RCHA_0                       
                 CHD =  3636791521.4341                   CHD =     9225715.6484     SSM_CHD_COAST                    
                 CHD = 36426749795.1796                   CHD =   127971605.0734     SSM_CHD_PERIMETER                
     FLOW-CORRECTION =      107179.3674       FLOW-CORRECTION =          58.3355                                      

            TOTAL IN = 41868261681.7641              TOTAL IN =   143410527.8523

          OUT:                                     OUT:
          ----                                     ----
     STORAGE-AQUEOUS =  1489686425.5328       STORAGE-AQUEOUS =     5649012.8858     MST                              
                 WEL =           0.0000                   WEL =           0.0000     SSM_WEL_0                        
                 DRN =    20188984.4626                   DRN =       51223.9330     SSM_DRN                          
                 GHB =   506961974.5169                   GHB =     1330256.2150     SSM_GHB                          
                RCHA =           0.0000                  RCHA =           0.0000     SSM_RCHA_0                       
                 CHD =  2773632457.0175                   CHD =     7020486.2549     SSM_CHD_COAST                    
                 CHD = 37077726027.7795                   CHD =   129359356.9641     SSM_CHD_PERIMETER                
     FLOW-CORRECTION =       65812.4529       FLOW-CORRECTION =         191.5996                                      

           TOTAL OUT = 41868261681.7621             TOTAL OUT =   143410527.8523

            IN - OUT =       1.9760E-03              IN - OUT =       2.6822E-07

 PERCENT DISCREPANCY =           0.00     PERCENT DISCREPANCY =           0.00




         TIME SUMMARY AT END OF TIME STEP    1 IN STRESS PERIOD   19
                    SECONDS     MINUTES      HOURS       DAYS        YEARS
                    -----------------------------------------------------------
   TIME STEP LENGTH  86400.      1440.0      24.000      1.0000     2.73785E-03
 STRESS PERIOD TIME  86400.      1440.0      24.000      1.0000     2.73785E-03
         TOTAL TIME 3.30912E+07 5.51520E+05  9192.0      383.00      1.0486    


end timestep


start timestep kper="20" kstp="1" mode="normal"


 OUTPUT CONTROL FOR STRESS PERIOD 20 IS REPEATED USING SETTINGS FROM A PREVIOUS STRESS PERIOD.


  MASS BUDGET FOR ENTIRE MODEL AT END OF TIME STEP    1, STRESS PERIOD  20
  ---------------------------------------------------------------------------------------------------

     CUMULATIVE MASS      M       RATES FOR THIS TIME STEP      M/T          PACKAGE NAME    
     ------------------                 ------------------------                     ----------------

           IN:                                      IN:
           ---                                      ---
     STORAGE-AQUEOUS =  1810491770.0650       STORAGE-AQUEOUS =     5878584.2820     MST                              
                 WEL =           0.0000                   WEL =           0.0000     SSM_WEL_0                        
                 DRN =           0.0000                   DRN =           0.0000     SSM_DRN                          
                 GHB =           0.0000                   GHB =           0.0000     SSM_GHB                          
                RCHA =           0.0000                  RCHA =           0.0000     SSM_RCHA_0                       
                 CHD =  3646094467.7462                   CHD =     9302946.3121     SSM_CHD_COAST                    
                 CHD = 36553892888.7580                   CHD =   127143093.5784     SSM_CHD_PERIMETER                
     FLOW-CORRECTION =      107266.9025       FLOW-CORRECTION =          87.5351                                      

            TOTAL IN = 42010586393.4717              TOTAL IN =   142324711.7075

          OUT:                                     OUT:
          ----                                     ----
     STORAGE-AQUEOUS =  1495229580.2884       STORAGE-AQUEOUS =     5543154.7556     MST                              
                 WEL =           0.0000                   WEL =           0.0000     SSM_WEL_0                        
                 DRN =    20239973.5945                   DRN =       50989.1319     SSM_DRN                          
                 GHB =   508281614.4489                   GHB =     1319639.9320     SSM_GHB                          
                RCHA =           0.0000                  RCHA =           0.0000     SSM_RCHA_0                       
                 CHD =  2780538577.2651                   CHD =     6906120.2477     SSM_CHD_COAST                    
                 CHD = 37206230804.5357                   CHD =   128504776.7562     SSM_CHD_PERIMETER                
     FLOW-CORRECTION =       65843.3370       FLOW-CORRECTION =          30.8841                                      

           TOTAL OUT = 42010586393.4697             TOTAL OUT =   142324711.7075

            IN - OUT =       1.9836E-03              IN - OUT =      -1.1921E-07

 PERCENT DISCREPANCY =           0.00     PERCENT DISCREPANCY =          -0.00




         TIME SUMMARY AT END OF TIME STEP    1 IN STRESS PERIOD   20
                    SECONDS     MINUTES      HOURS       DAYS        YEARS
                    -----------------------------------------------------------
   TIME STEP LENGTH  86400.      1440.0      24.000      1.0000     2.73785E-03
 STRESS PERIOD TIME  86400.      1440.0      24.000      1.0000     2.73785E-03
         TOTAL TIME 3.31776E+07 5.52960E+05  9216.0      384.00      1.0513    


end timestep


start timestep kper="21" kstp="1" mode="normal"


 OUTPUT CONTROL FOR STRESS PERIOD 21 IS REPEATED USING SETTINGS FROM A PREVIOUS STRESS PERIOD.


  MASS BUDGET FOR ENTIRE MODEL AT END OF TIME STEP    1, STRESS PERIOD  21
  ---------------------------------------------------------------------------------------------------

     CUMULATIVE MASS      M       RATES FOR THIS TIME STEP      M/T          PACKAGE NAME    
     ------------------                 ------------------------                     ----------------

           IN:                                      IN:
           ---                                      ---
[...]
                 GHB =           0.0000                   GHB =           0.0000     SSM_GHB                          
                RCHA =           0.0000                  RCHA =           0.0000     SSM_RCHA_0                       
                 CHD =  6191535957.6526                   CHD =     5709113.6064     SSM_CHD_COAST                    
                 CHD = 75840649877.8475                   CHD =   123759822.1007     SSM_CHD_PERIMETER                
     FLOW-CORRECTION =      124767.2137       FLOW-CORRECTION =          28.9107                                      

            TOTAL IN = 86333863768.2294              TOTAL IN =   139752489.4190

          OUT:                                     OUT:
          ----                                     ----
     STORAGE-AQUEOUS =  2469587908.4910       STORAGE-AQUEOUS =     2072765.6788     MST                              
                 WEL =           0.0000                   WEL =           0.0000     SSM_WEL_0                        
                 DRN =    39211464.4813                   DRN =       48892.5748     SSM_DRN                          
                 GHB =  1084799908.7598                   GHB =     2104231.4909     SSM_GHB                          
                RCHA =           0.0000                  RCHA =           0.0000     SSM_RCHA_0                       
                 CHD =  6128011183.7928                   CHD =    12115136.4574     SSM_CHD_COAST                    
                 CHD = 76612153362.5802                   CHD =   123411096.5650     SSM_CHD_PERIMETER                
     FLOW-CORRECTION =       99940.1222       FLOW-CORRECTION =         366.6521                                      

           TOTAL OUT = 86333863768.2274             TOTAL OUT =   139752489.4190

            IN - OUT =       1.9684E-03              IN - OUT =       5.0664E-07

 PERCENT DISCREPANCY =           0.00     PERCENT DISCREPANCY =           0.00




         TIME SUMMARY AT END OF TIME STEP    1 IN STRESS PERIOD  361
                    SECONDS     MINUTES      HOURS       DAYS        YEARS
                    -----------------------------------------------------------
   TIME STEP LENGTH  86400.      1440.0      24.000      1.0000     2.73785E-03
 STRESS PERIOD TIME  86400.      1440.0      24.000      1.0000     2.73785E-03
         TOTAL TIME 6.26400E+07 1.04400E+06  17400.      725.00      1.9849    


end timestep


start timestep kper="362" kstp="1" mode="normal"


 OUTPUT CONTROL FOR STRESS PERIOD 362 IS REPEATED USING SETTINGS FROM A PREVIOUS STRESS PERIOD.


  MASS BUDGET FOR ENTIRE MODEL AT END OF TIME STEP    1, STRESS PERIOD 362
  ---------------------------------------------------------------------------------------------------

     CUMULATIVE MASS      M       RATES FOR THIS TIME STEP      M/T          PACKAGE NAME    
     ------------------                 ------------------------                     ----------------

           IN:                                      IN:
           ---                                      ---
     STORAGE-AQUEOUS =  4311361666.1689       STORAGE-AQUEOUS =     9808500.6532     MST                              
                 WEL =           0.0000                   WEL =           0.0000     SSM_WEL_0                        
                 DRN =           0.0000                   DRN =           0.0000     SSM_DRN                          
                 GHB =           0.0000                   GHB =           0.0000     SSM_GHB                          
                RCHA =           0.0000                  RCHA =           0.0000     SSM_RCHA_0                       
                 CHD =  6197405605.4663                   CHD =     5869647.8137     SSM_CHD_COAST                    
                 CHD = 75964213078.8275                   CHD =   123563200.9801     SSM_CHD_PERIMETER                
     FLOW-CORRECTION =      124845.0128       FLOW-CORRECTION =          77.7991                                      

            TOTAL IN = 86473105195.4754              TOTAL IN =   139241427.2461

          OUT:                                     OUT:
          ----                                     ----
     STORAGE-AQUEOUS =  2471646879.3161       STORAGE-AQUEOUS =     2058970.8251     MST                              
                 WEL =           0.0000                   WEL =           0.0000     SSM_WEL_0                        
                 DRN =    39259885.6825                   DRN =       48421.2011     SSM_DRN                          
                 GHB =  1086871952.0270                   GHB =     2072043.2672     SSM_GHB                          
                RCHA =           0.0000                  RCHA =           0.0000     SSM_RCHA_0                       
                 CHD =  6139721490.3308                   CHD =    11710306.5380     SSM_CHD_COAST                    
                 CHD = 76735505031.5519                   CHD =   123351668.9717     SSM_CHD_PERIMETER                
     FLOW-CORRECTION =       99956.5652       FLOW-CORRECTION =          16.4430                                      

           TOTAL OUT = 86473105195.4735             TOTAL OUT =   139241427.2461

            IN - OUT =       1.9684E-03              IN - OUT =       3.2783E-07

 PERCENT DISCREPANCY =           0.00     PERCENT DISCREPANCY =           0.00




         TIME SUMMARY AT END OF TIME STEP    1 IN STRESS PERIOD  362
                    SECONDS     MINUTES      HOURS       DAYS        YEARS
                    -----------------------------------------------------------
   TIME STEP LENGTH  86400.      1440.0      24.000      1.0000     2.73785E-03
 STRESS PERIOD TIME  86400.      1440.0      24.000      1.0000     2.73785E-03
         TOTAL TIME 6.27264E+07 1.04544E+06  17424.      726.00      1.9877    


end timestep


start timestep kper="363" kstp="1" mode="normal"


 OUTPUT CONTROL FOR STRESS PERIOD 363 IS REPEATED USING SETTINGS FROM A PREVIOUS STRESS PERIOD.


  MASS BUDGET FOR ENTIRE MODEL AT END OF TIME STEP    1, STRESS PERIOD 363
  ---------------------------------------------------------------------------------------------------

     CUMULATIVE MASS      M       RATES FOR THIS TIME STEP      M/T          PACKAGE NAME    
     ------------------                 ------------------------                     ----------------

           IN:                                      IN:
           ---                                      ---
     STORAGE-AQUEOUS =  4328194175.3398       STORAGE-AQUEOUS =    16832509.1710     MST                              
                 WEL =           0.0000                   WEL =           0.0000     SSM_WEL_0                        
                 DRN =           0.0000                   DRN =           0.0000     SSM_DRN                          
                 GHB =           0.0000                   GHB =           0.0000     SSM_GHB                          
                RCHA =           0.0000                  RCHA =           0.0000     SSM_RCHA_0                       
                 CHD =  6201838389.5888                   CHD =     4432784.1225     SSM_CHD_COAST                    
                 CHD = 76088634626.9241                   CHD =   124421548.0966     SSM_CHD_PERIMETER                
     FLOW-CORRECTION =      124863.0082       FLOW-CORRECTION =          17.9955                                      

            TOTAL IN = 86618792054.8610              TOTAL IN =   145686859.3855

          OUT:                                     OUT:
          ----                                     ----
     STORAGE-AQUEOUS =  2473791295.5033       STORAGE-AQUEOUS =     2144416.1872     MST                              
                 WEL =           0.0000                   WEL =           0.0000     SSM_WEL_0                        
                 DRN =    39345914.0657                   DRN =       86028.3832     SSM_DRN                          
                 GHB =  1089282935.2144                   GHB =     2410983.1874     SSM_GHB                          
                RCHA =           0.0000                  RCHA =           0.0000     SSM_RCHA_0                       
                 CHD =  6157297133.2184                   CHD =    17575642.8876     SSM_CHD_COAST                    
                 CHD = 76858974784.1002                   CHD =   123469752.5483     SSM_CHD_PERIMETER                
     FLOW-CORRECTION =       99992.7571       FLOW-CORRECTION =          36.1919                                      

           TOTAL OUT = 86618792054.8590             TOTAL OUT =   145686859.3855

            IN - OUT =       1.9836E-03              IN - OUT =      -1.4901E-07

 PERCENT DISCREPANCY =           0.00     PERCENT DISCREPANCY =          -0.00




         TIME SUMMARY AT END OF TIME STEP    1 IN STRESS PERIOD  363
                    SECONDS     MINUTES      HOURS       DAYS        YEARS
                    -----------------------------------------------------------
   TIME STEP LENGTH  86400.      1440.0      24.000      1.0000     2.73785E-03
 STRESS PERIOD TIME  86400.      1440.0      24.000      1.0000     2.73785E-03
         TOTAL TIME 6.28128E+07 1.04688E+06  17448.      727.00      1.9904    


end timestep


start timestep kper="364" kstp="1" mode="normal"


 OUTPUT CONTROL FOR STRESS PERIOD 364 IS REPEATED USING SETTINGS FROM A PREVIOUS STRESS PERIOD.


  MASS BUDGET FOR ENTIRE MODEL AT END OF TIME STEP    1, STRESS PERIOD 364
  ---------------------------------------------------------------------------------------------------

     CUMULATIVE MASS      M       RATES FOR THIS TIME STEP      M/T          PACKAGE NAME    
     ------------------                 ------------------------                     ----------------

           IN:                                      IN:
           ---                                      ---
     STORAGE-AQUEOUS =  4339730607.7303       STORAGE-AQUEOUS =    11536432.3905     MST                              
                 WEL =           0.0000                   WEL =           0.0000     SSM_WEL_0                        
                 DRN =           0.0000                   DRN =           0.0000     SSM_DRN                          
                 GHB =           0.0000                   GHB =           0.0000     SSM_GHB                          
                RCHA =           0.0000                  RCHA =           0.0000     SSM_RCHA_0                       
                 CHD =  6207163470.8637                   CHD =     5325081.2749     SSM_CHD_COAST                    
                 CHD = 76212671937.1896                   CHD =   124037310.2654     SSM_CHD_PERIMETER                
     FLOW-CORRECTION =      124868.6182       FLOW-CORRECTION =           5.6099                                      

            TOTAL IN = 86759690884.4017              TOTAL IN =   140898829.5407

          OUT:                                     OUT:
          ----                                     ----
     STORAGE-AQUEOUS =  2475899774.4977       STORAGE-AQUEOUS =     2108478.9945     MST                              
                 WEL =           0.0000                   WEL =           0.0000     SSM_WEL_0                        
                 DRN =    39395955.8976                   DRN =       50041.8320     SSM_DRN                          
                 GHB =  1091460915.6219                   GHB =     2177980.4075     SSM_GHB                          
                RCHA =           0.0000                  RCHA =           0.0000     SSM_RCHA_0                       
                 CHD =  6170497630.0473                   CHD =    13200496.8289     SSM_CHD_COAST                    
                 CHD = 76982336518.9361                   CHD =   123361734.8359     SSM_CHD_PERIMETER                
     FLOW-CORRECTION =      100089.3991       FLOW-CORRECTION =          96.6420                                      

           TOTAL OUT = 86759690884.3998             TOTAL OUT =   140898829.5407

            IN - OUT =       1.9531E-03              IN - OUT =      -1.1921E-07

 PERCENT DISCREPANCY =           0.00     PERCENT DISCREPANCY =          -0.00




         TIME SUMMARY AT END OF TIME STEP    1 IN STRESS PERIOD  364
                    SECONDS     MINUTES      HOURS       DAYS        YEARS
                    -----------------------------------------------------------
   TIME STEP LENGTH  86400.      1440.0      24.000      1.0000     2.73785E-03
 STRESS PERIOD TIME  86400.      1440.0      24.000      1.0000     2.73785E-03
         TOTAL TIME 6.28992E+07 1.04832E+06  17472.      728.00      1.9932    


end timestep


start timestep kper="365" kstp="1" mode="normal"


 OUTPUT CONTROL FOR STRESS PERIOD 365 IS REPEATED USING SETTINGS FROM A PREVIOUS STRESS PERIOD.


  MASS BUDGET FOR ENTIRE MODEL AT END OF TIME STEP    1, STRESS PERIOD 365
  ---------------------------------------------------------------------------------------------------

     CUMULATIVE MASS      M       RATES FOR THIS TIME STEP      M/T          PACKAGE NAME    
     ------------------                 ------------------------                     ----------------

           IN:                                      IN:
           ---                                      ---
     STORAGE-AQUEOUS =  4350628085.6995       STORAGE-AQUEOUS =    10897477.9692     MST                              
                 WEL =           0.0000                   WEL =           0.0000     SSM_WEL_0                        
                 DRN =           0.0000                   DRN =           0.0000     SSM_DRN                          
                 GHB =           0.0000                   GHB =           0.0000     SSM_GHB                          
                RCHA =           0.0000                  RCHA =           0.0000     SSM_RCHA_0                       
                 CHD =  6212685791.2243                   CHD =     5522320.3606     SSM_CHD_COAST                    
                 CHD = 76336416070.6471                   CHD =   123744133.4575     SSM_CHD_PERIMETER                
     FLOW-CORRECTION =      124946.6642       FLOW-CORRECTION =          78.0460                                      

            TOTAL IN = 86899854894.2351              TOTAL IN =   140164009.8333

          OUT:                                     OUT:
          ----                                     ----
     STORAGE-AQUEOUS =  2477982884.9312       STORAGE-AQUEOUS =     2083110.4335     MST                              
                 WEL =           0.0000                   WEL =           0.0000     SSM_WEL_0                        
                 DRN =    39445263.2952                   DRN =       49307.3975     SSM_DRN                          
                 GHB =  1093600789.7933                   GHB =     2139874.1714     SSM_GHB                          
                RCHA =           0.0000                  RCHA =           0.0000     SSM_RCHA_0                       
                 CHD =  6183134475.0114                   CHD =    12636844.9641     SSM_CHD_COAST                    
                 CHD = 77105591347.1068                   CHD =   123254828.1707     SSM_CHD_PERIMETER                
     FLOW-CORRECTION =      100134.0953       FLOW-CORRECTION =          44.6961                                      

           TOTAL OUT = 86899854894.2331             TOTAL OUT =   140164009.8333

            IN - OUT =       1.9531E-03              IN - OUT =      -3.2783E-07

 PERCENT DISCREPANCY =           0.00     PERCENT DISCREPANCY =          -0.00




         TIME SUMMARY AT END OF TIME STEP    1 IN STRESS PERIOD  365
                    SECONDS     MINUTES      HOURS       DAYS        YEARS
                    -----------------------------------------------------------
   TIME STEP LENGTH  86400.      1440.0      24.000      1.0000     2.73785E-03
 STRESS PERIOD TIME  86400.      1440.0      24.000      1.0000     2.73785E-03
         TOTAL TIME 6.29856E+07 1.04976E+06  17496.      729.00      1.9959    


end timestep


start timestep kper="366" kstp="1" mode="normal"


 BEGIN READING OUTPUT CONTROL FOR STRESS PERIOD 366
      THE LAST TIME STEP WILL BE SAVED

 END READING OUTPUT CONTROL FOR STRESS PERIOD 366

 CONCENTRATION WILL BE SAVED ON UNIT 1270 AT END OF TIME STEP    1, STRESS PERIOD  366


  MASS BUDGET FOR ENTIRE MODEL AT END OF TIME STEP    1, STRESS PERIOD 366
  ---------------------------------------------------------------------------------------------------

     CUMULATIVE MASS      M       RATES FOR THIS TIME STEP      M/T          PACKAGE NAME    
     ------------------                 ------------------------                     ----------------

           IN:                                      IN:
           ---                                      ---
     STORAGE-AQUEOUS =  4365436861.0331       STORAGE-AQUEOUS =    14808775.3335     MST                              
                 WEL =           0.0000                   WEL =           0.0000     SSM_WEL_0                        
                 DRN =           0.0000                   DRN =           0.0000     SSM_DRN                          
                 GHB =           0.0000                   GHB =           0.0000     SSM_GHB                          
                RCHA =           0.0000                  RCHA =           0.0000     SSM_RCHA_0                       
                 CHD =  6217363993.8440                   CHD =     4678202.6197     SSM_CHD_COAST                    
                 CHD = 76460716539.3868                   CHD =   124300468.7397     SSM_CHD_PERIMETER                
     FLOW-CORRECTION =      124968.5662       FLOW-CORRECTION =          21.9020                                      

            TOTAL IN = 87043642362.8300              TOTAL IN =   143787468.5950

          OUT:                                     OUT:
          ----                                     ----
     STORAGE-AQUEOUS =  2479930987.1848       STORAGE-AQUEOUS =     1948102.2536     MST                              
                 WEL =           0.0000                   WEL =           0.0000     SSM_WEL_0                        
                 DRN =    39518293.7209                   DRN =       73030.4258     SSM_DRN                          
                 GHB =  1096006720.8995                   GHB =     2405931.1062     SSM_GHB                          
                RCHA =           0.0000                  RCHA =           0.0000     SSM_RCHA_0                       
                 CHD =  6199228136.9115                   CHD =    16093661.9001     SSM_CHD_COAST                    
                 CHD = 77228857969.0135                   CHD =   123266621.9066     SSM_CHD_PERIMETER                
     FLOW-CORRECTION =      100255.0979       FLOW-CORRECTION =         121.0026                                      

           TOTAL OUT = 87043642362.8281             TOTAL OUT =   143787468.5950

            IN - OUT =       1.9531E-03              IN - OUT =       3.2783E-07

 PERCENT DISCREPANCY =           0.00     PERCENT DISCREPANCY =           0.00




         TIME SUMMARY AT END OF TIME STEP    1 IN STRESS PERIOD  366
                    SECONDS     MINUTES      HOURS       DAYS        YEARS
                    -----------------------------------------------------------
   TIME STEP LENGTH  86400.      1440.0      24.000      1.0000     2.73785E-03
 STRESS PERIOD TIME  86400.      1440.0      24.000      1.0000     2.73785E-03
         TOTAL TIME 6.30720E+07 1.05120E+06  17520.      730.00      1.9986    


end timestep

