                                   MODFLOW 6
                U.S. GEOLOGICAL SURVEY MODULAR HYDROLOGIC MODEL
                          GROUNDWATER FLOW MODEL (GWF)
                            VERSION 6.3.0 03/04/2022

   MODFLOW 6 compiled Mar 02 2022 15:29:04 with Intel(R) Fortran Intel(R) 64
   Compiler Classic for applications running on Intel(R) 64, Version 2021.5.0
                             Build 20211109_000000

This software has been approved for release by the U.S. Geological 
Survey (USGS). Although the software has been subjected to rigorous 
review, the USGS reserves the right to update the software as needed 
pursuant to further analysis and review. No warranty, expressed or 
implied, is made by the USGS or the U.S. Government as to the 
functionality of the software and related material nor shall the 
fact of release constitute any such warranty. Furthermore, the 
software is released on condition that neither the USGS nor the U.S. 
Government shall be held liable for any damages resulting from its 
authorized or unauthorized use. Also refer to the USGS Water 
Resources Software User Rights Notice for complete use, copyright, 
and distribution information.


As a work of the United States Government, this USGS product is 
in the public domain within the United States. You can copy, 
modify, distribute, and perform the work, even for commercial 
purposes, all without asking permission. Additionally, USGS 
waives copyright and related rights in the work worldwide 
through CC0 1.0 Universal Public Domain Dedication 
(https://creativecommons.org/publicdomain/zero/1.0/).

The following GNU Lesser General Public License (LGPL) libraries
are used in this USGS product:

    SPARSKIT version 2.0
      ilut, luson, and qsplit 
      (https://www-users.cse.umn.edu/~saad/software/SPARSKIT/)

    RCM - Reverse Cuthill McKee Ordering
      (https://people.math.sc.edu/Burkardt/f_src/rcm/rcm.html)

    BLAS - Basic Linear Algebra Subprograms Level 1
      (https://people.math.sc.edu/Burkardt/f_src/blas1_d/blas1_d.html)

    SPARSEKIT - Sparse Matrix Utility Package
      amux, dperm, dvperm, rperm, and cperm
      (https://people.sc.fsu.edu/~jburkardt/f77_src/sparsekit/sparsekit.html)

The following BSD-3 License libraries are used in this USGS product:

    Modern Fortran DAG Library
      Copyright (c) 2018, Jacob Williams
      All rights reserved.
      (https://github.com/jacobwilliams/daglib)

MODFLOW 6 compiler options: /Isrc\libmf6core.a.p /Isrc /I..\src
/Isrc\libmf6_external.a.p /MTd /nologo /warn:general /warn:truncated_source
/stand:f08 /Zi /traceback /O2 /Zi /fpe:0 /fpp /Qdiag-disable:7416
/Qdiag-disable:7025 /Qdiag-disable:5268
/Fdsrc\libmf6core.a.p\Utilities_compilerversion.F90.pdb
/module:src\libmf6core.a.p
/Fosrc/libmf6core.a.p/Utilities_compilerversion.F90.obj /c

System command used to initiate simulation:
"D:\LISS_GW\GW_Models\bin\mf6.exe"

MODFLOW was compiled using uniform precision.

Real Variables
  KIND: 8
  TINY (smallest non-zero value):    2.225074-308
  HUGE (largest value):    1.797693+308
  PRECISION: 15
  BIT SIZE: 64

Integer Variables
  KIND: 4
  HUGE (largest value): 2147483647
  BIT SIZE: 32

Long Integer Variables
  KIND: 8
  HUGE (largest value): 9223372036854775807
  BIT SIZE: 64

Logical Variables
  KIND: 4
  BIT SIZE: 32
 

 OPENED gwf.ghb
 FILE TYPE:GHB6                   UNIT 1005   STATUS:OLD                 
 FORMAT:FORMATTED              ACCESS:SEQUENTIAL          
 ACTION:READ                


 OPENED gwf.drn
 FILE TYPE:DRN6                   UNIT 1006   STATUS:OLD                 
 FORMAT:FORMATTED              ACCESS:SEQUENTIAL          
 ACTION:READ                


 OPENED gwf_0.chd
 FILE TYPE:CHD6                   UNIT 1007   STATUS:OLD                 
 FORMAT:FORMATTED              ACCESS:SEQUENTIAL          
 ACTION:READ                


 OPENED gwf.wel
 FILE TYPE:WEL6                   UNIT 1008   STATUS:OLD                 
 FORMAT:FORMATTED              ACCESS:SEQUENTIAL          
 ACTION:READ                


 OPENED gwf.chd
 FILE TYPE:CHD6                   UNIT 1009   STATUS:OLD                 
 FORMAT:FORMATTED              ACCESS:SEQUENTIAL          
 ACTION:READ                


 OPENED gwf.rcha
 FILE TYPE:RCH6                   UNIT 1010   STATUS:OLD                 
 FORMAT:FORMATTED              ACCESS:SEQUENTIAL          
 ACTION:READ                


 OPENED gwf.sto
 FILE TYPE:STO6                   UNIT 1011   STATUS:OLD                 
 FORMAT:FORMATTED              ACCESS:SEQUENTIAL          
 ACTION:READ                


 OPENED gwf.npf
 FILE TYPE:NPF6                   UNIT 1012   STATUS:OLD                 
 FORMAT:FORMATTED              ACCESS:SEQUENTIAL          
 ACTION:READ                


 OPENED gwf.ic
 FILE TYPE:IC6                    UNIT 1013   STATUS:OLD                 
 FORMAT:FORMATTED              ACCESS:SEQUENTIAL          
 ACTION:READ                


 OPENED gwf.dis
 FILE TYPE:DIS6                   UNIT 1014   STATUS:OLD                 
 FORMAT:FORMATTED              ACCESS:SEQUENTIAL          
 ACTION:READ                


 OPENED gwf.oc
 FILE TYPE:OC6                    UNIT 1015   STATUS:OLD                 
 FORMAT:FORMATTED              ACCESS:SEQUENTIAL          
 ACTION:READ                


 OPENED gwf.buy
 FILE TYPE:BUY6                   UNIT 1016   STATUS:OLD                 
 FORMAT:FORMATTED              ACCESS:SEQUENTIAL          
 ACTION:READ                

 NAMEFILE OPTIONS:
    STRESS PACKAGE INPUT WILL BE PRINTED FOR ALL MODEL STRESS PACKAGES
    FLOWS WILL BE SAVED TO BUDGET FILE SPECIFIED IN OUTPUT CONTROL
    NEWTON-RAPHSON method enabled for the model.
    NEWTON-RAPHSON UNDER-RELAXATION based on the bottom elevation of the model will be applied to the model.

 DIS -- STRUCTURED GRID DISCRETIZATION PACKAGE, VERSION 2 : 3/27/2014 - INPUT READ FROM UNIT 1014


 # File generated by Flopy version 3.9.1 on 07/24/2025 at 10:05:47.
 PROCESSING DISCRETIZATION OPTIONS
    MODEL LENGTH UNIT IS FEET
    XORIGIN SPECIFIED AS     2250908.49000000    
    YORIGIN SPECIFIED AS     232286.359000000    
    ANGROT SPECIFIED AS     18.0000000000000    
 END OF DISCRETIZATION OPTIONS
 PROCESSING DISCRETIZATION DIMENSIONS
    NLAY =      20
    NROW =     182
    NCOL =      84
 END OF DISCRETIZATION DIMENSIONS
 PROCESSING GRIDDATA

 OPENED .\external\top.dat
 FILE TYPE:OPEN/CLOSE   UNIT 1028   STATUS:OLD                 
 FORMAT:FORMATTED              ACCESS:SEQUENTIAL          
 ACTION:READ                


 OPENED .\external\bot_00.dat
 FILE TYPE:OPEN/CLOSE   UNIT 1029   STATUS:OLD                 
 FORMAT:FORMATTED              ACCESS:SEQUENTIAL          
 ACTION:READ                


 OPENED .\external\bot_01.dat
 FILE TYPE:OPEN/CLOSE   UNIT 1030   STATUS:OLD                 
 FORMAT:FORMATTED              ACCESS:SEQUENTIAL          
 ACTION:READ                


 OPENED .\external\bot_02.dat
 FILE TYPE:OPEN/CLOSE   UNIT 1031   STATUS:OLD                 
 FORMAT:FORMATTED              ACCESS:SEQUENTIAL          
 ACTION:READ                


 OPENED .\external\bot_03.dat
 FILE TYPE:OPEN/CLOSE   UNIT 1032   STATUS:OLD                 
 FORMAT:FORMATTED              ACCESS:SEQUENTIAL          
 ACTION:READ                


 OPENED .\external\bot_04.dat
 FILE TYPE:OPEN/CLOSE   UNIT 1033   STATUS:OLD                 
 FORMAT:FORMATTED              ACCESS:SEQUENTIAL          
 ACTION:READ                


 OPENED .\external\bot_05.dat
 FILE TYPE:OPEN/CLOSE   UNIT 1034   STATUS:OLD                 
 FORMAT:FORMATTED              ACCESS:SEQUENTIAL          
 ACTION:READ                


 OPENED .\external\bot_06.dat
 FILE TYPE:OPEN/CLOSE   UNIT 1035   STATUS:OLD                 
 FORMAT:FORMATTED              ACCESS:SEQUENTIAL          
 ACTION:READ                


 OPENED .\external\bot_07.dat
 FILE TYPE:OPEN/CLOSE   UNIT 1036   STATUS:OLD                 
 FORMAT:FORMATTED              ACCESS:SEQUENTIAL          
 ACTION:READ                


 OPENED .\external\bot_08.dat
 FILE TYPE:OPEN/CLOSE   UNIT 1037   STATUS:OLD                 
 FORMAT:FORMATTED              ACCESS:SEQUENTIAL          
 ACTION:READ                


 OPENED .\external\bot_09.dat
 FILE TYPE:OPEN/CLOSE   UNIT 1038   STATUS:OLD                 
 FORMAT:FORMATTED              ACCESS:SEQUENTIAL          
 ACTION:READ                


 OPENED .\external\bot_10.dat
 FILE TYPE:OPEN/CLOSE   UNIT 1039   STATUS:OLD                 
 FORMAT:FORMATTED              ACCESS:SEQUENTIAL          
 ACTION:READ                


 OPENED .\external\bot_11.dat
 FILE TYPE:OPEN/CLOSE   UNIT 1040   STATUS:OLD                 
 FORMAT:FORMATTED              ACCESS:SEQUENTIAL          
 ACTION:READ                


 OPENED .\external\bot_12.dat
 FILE TYPE:OPEN/CLOSE   UNIT 1041   STATUS:OLD                 
 FORMAT:FORMATTED              ACCESS:SEQUENTIAL          
 ACTION:READ                


 OPENED .\external\bot_13.dat
 FILE TYPE:OPEN/CLOSE   UNIT 1042   STATUS:OLD                 
 FORMAT:FORMATTED              ACCESS:SEQUENTIAL          
 ACTION:READ                


 OPENED .\external\bot_14.dat
 FILE TYPE:OPEN/CLOSE   UNIT 1043   STATUS:OLD                 
 FORMAT:FORMATTED              ACCESS:SEQUENTIAL          
 ACTION:READ                


 OPENED .\external\bot_15.dat
 FILE TYPE:OPEN/CLOSE   UNIT 1044   STATUS:OLD                 
 FORMAT:FORMATTED              ACCESS:SEQUENTIAL          
 ACTION:READ                


 OPENED .\external\bot_16.dat
 FILE TYPE:OPEN/CLOSE   UNIT 1045   STATUS:OLD                 
 FORMAT:FORMATTED              ACCESS:SEQUENTIAL          
 ACTION:READ                


 OPENED .\external\bot_17.dat
 FILE TYPE:OPEN/CLOSE   UNIT 1046   STATUS:OLD                 
 FORMAT:FORMATTED              ACCESS:SEQUENTIAL          
 ACTION:READ                


 OPENED .\external\bot_18.dat
 FILE TYPE:OPEN/CLOSE   UNIT 1047   STATUS:OLD                 
 FORMAT:FORMATTED              ACCESS:SEQUENTIAL          
 ACTION:READ                


 OPENED .\external\bot_19.dat
 FILE TYPE:OPEN/CLOSE   UNIT 1048   STATUS:OLD                 
 FORMAT:FORMATTED              ACCESS:SEQUENTIAL          
 ACTION:READ                


 OPENED .\external\idom_00.dat
 FILE TYPE:OPEN/CLOSE   UNIT 1049   STATUS:OLD                 
 FORMAT:FORMATTED              ACCESS:SEQUENTIAL          
 ACTION:READ                


 OPENED .\external\idom_01.dat
 FILE TYPE:OPEN/CLOSE   UNIT 1050   STATUS:OLD                 
 FORMAT:FORMATTED              ACCESS:SEQUENTIAL          
 ACTION:READ                


 OPENED .\external\idom_02.dat
 FILE TYPE:OPEN/CLOSE   UNIT 1051   STATUS:OLD                 
 FORMAT:FORMATTED              ACCESS:SEQUENTIAL          
 ACTION:READ                


 OPENED .\external\idom_03.dat
 FILE TYPE:OPEN/CLOSE   UNIT 1052   STATUS:OLD                 
 FORMAT:FORMATTED              ACCESS:SEQUENTIAL          
 ACTION:READ                


 OPENED .\external\idom_04.dat
 FILE TYPE:OPEN/CLOSE   UNIT 1053   STATUS:OLD                 
 FORMAT:FORMATTED              ACCESS:SEQUENTIAL          
 ACTION:READ                


 OPENED .\external\idom_05.dat
 FILE TYPE:OPEN/CLOSE   UNIT 1054   STATUS:OLD                 
 FORMAT:FORMATTED              ACCESS:SEQUENTIAL          
 ACTION:READ                


 OPENED .\external\idom_06.dat
 FILE TYPE:OPEN/CLOSE   UNIT 1055   STATUS:OLD                 
 FORMAT:FORMATTED              ACCESS:SEQUENTIAL          
 ACTION:READ                


 OPENED .\external\idom_07.dat
 FILE TYPE:OPEN/CLOSE   UNIT 1056   STATUS:OLD                 
 FORMAT:FORMATTED              ACCESS:SEQUENTIAL          
 ACTION:READ                


 OPENED .\external\idom_08.dat
 FILE TYPE:OPEN/CLOSE   UNIT 1057   STATUS:OLD                 
 FORMAT:FORMATTED              ACCESS:SEQUENTIAL          
 ACTION:READ                


 OPENED .\external\idom_09.dat
 FILE TYPE:OPEN/CLOSE   UNIT 1058   STATUS:OLD                 
 FORMAT:FORMATTED              ACCESS:SEQUENTIAL          
 ACTION:READ                


 OPENED .\external\idom_10.dat
 FILE TYPE:OPEN/CLOSE   UNIT 1059   STATUS:OLD                 
 FORMAT:FORMATTED              ACCESS:SEQUENTIAL          
 ACTION:READ                


 OPENED .\external\idom_11.dat
 FILE TYPE:OPEN/CLOSE   UNIT 1060   STATUS:OLD                 
 FORMAT:FORMATTED              ACCESS:SEQUENTIAL          
 ACTION:READ                


 OPENED .\external\idom_12.dat
 FILE TYPE:OPEN/CLOSE   UNIT 1061   STATUS:OLD                 
 FORMAT:FORMATTED              ACCESS:SEQUENTIAL          
 ACTION:READ                


 OPENED .\external\idom_13.dat
 FILE TYPE:OPEN/CLOSE   UNIT 1062   STATUS:OLD                 
 FORMAT:FORMATTED              ACCESS:SEQUENTIAL          
 ACTION:READ                


 OPENED .\external\idom_14.dat
 FILE TYPE:OPEN/CLOSE   UNIT 1063   STATUS:OLD                 
 FORMAT:FORMATTED              ACCESS:SEQUENTIAL          
 ACTION:READ                


 OPENED .\external\idom_15.dat
 FILE TYPE:OPEN/CLOSE   UNIT 1064   STATUS:OLD                 
 FORMAT:FORMATTED              ACCESS:SEQUENTIAL          
 ACTION:READ                


 OPENED .\external\idom_16.dat
 FILE TYPE:OPEN/CLOSE   UNIT 1065   STATUS:OLD                 
 FORMAT:FORMATTED              ACCESS:SEQUENTIAL          
 ACTION:READ                


 OPENED .\external\idom_17.dat
 FILE TYPE:OPEN/CLOSE   UNIT 1066   STATUS:OLD                 
 FORMAT:FORMATTED              ACCESS:SEQUENTIAL          
 ACTION:READ                


 OPENED .\external\idom_18.dat
 FILE TYPE:OPEN/CLOSE   UNIT 1067   STATUS:OLD                 
 FORMAT:FORMATTED              ACCESS:SEQUENTIAL          
 ACTION:READ                


 OPENED .\external\idom_19.dat
 FILE TYPE:OPEN/CLOSE   UNIT 1068   STATUS:OLD                 
 FORMAT:FORMATTED              ACCESS:SEQUENTIAL          
 ACTION:READ                

 END PROCESSING GRIDDATA

 THE SPECIFIED IDOMAIN RESULTS IN A REDUCED NUMBER OF CELLS.
 NUMBER OF USER NODES: 305760
 NUMBER OF NODES IN SOLUTION: 208080



 NPF -- NODE PROPERTY FLOW PACKAGE, VERSION 1, 3/30/2015 INPUT READ FROM UNIT 1012


 # File generated by Flopy version 3.9.1 on 07/24/2025 at 10:05:47.
 PROCESSING NPF OPTIONS
    CELL-BY-CELL FLOW INFORMATION WILL BE SAVED TO BINARY FILE WHENEVER ICBCFL IS NOT ZERO.
 END OF NPF OPTIONS

 BUY -- BUOYANCY PACKAGE, VERSION 1, 5/16/2018 INPUT READ FROM UNIT 1016


 # File generated by Flopy version 3.9.1 on 07/24/2025 at 10:06:53.
 PROCESSING BUY OPTIONS
    REFERENCE DENSITY HAS BEEN SET TO:     1000.00    
 END OF BUY OPTIONS

 PROCESSING BUY DIMENSIONS
    NRHOSPECIES = 1
 END OF BUY DIMENSIONS
 PROCESSING BUY PACKAGEDATA
 END OF BUY PACKAGEDATA

SUMMARY OF SPECIES INFORMATION IN BUY PACKAGE
    SPECIES           DRHODC          CRHOREF            MODEL   AUXSPECIESNAME
          1         0.714286          0.00000              GWT         SALINITY

 WEL   -- WEL PACKAGE, VERSION 8, 2/22/2014 INPUT READ FROM UNIT 1008
 # File generated by Flopy version 3.9.1 on 07/24/2025 at 10:06:53.

 PROCESSING WEL OPTIONS
    WEL BOUNDARIES HAVE NAMES IN LAST COLUMN.
    FLOWS WILL BE SAVED TO BUDGET FILE SPECIFIED IN OUTPUT CONTROL

 OPENED gwf.wel.obs
 FILE TYPE:OBS   UNIT 1069   STATUS:OLD                 
 FORMAT:FORMATTED              ACCESS:SEQUENTIAL          
 ACTION:READ                

 END OF WEL OPTIONS

 PROCESSING WEL DIMENSIONS
    MAXBOUND =      20
 END OF WEL DIMENSIONS

 DRN   -- DRN PACKAGE, VERSION 8, 2/22/2014 INPUT READ FROM UNIT 1006
 # File generated by Flopy version 3.9.1 on 07/24/2025 at 10:06:53.

 PROCESSING DRN OPTIONS
    AUXILIARY DRN VARIABLE: SALINITY        

 OPENED gwf.drn.obs
 FILE TYPE:OBS   UNIT 1070   STATUS:OLD                 
 FORMAT:FORMATTED              ACCESS:SEQUENTIAL          
 ACTION:READ                

 END OF DRN OPTIONS

 PROCESSING DRN DIMENSIONS
    MAXBOUND =      35
 END OF DRN DIMENSIONS

 GHB   -- GHB PACKAGE, VERSION 8, 2/22/2014 INPUT READ FROM UNIT 1005
 # File generated by Flopy version 3.9.1 on 07/24/2025 at 10:06:53.

 PROCESSING GHB OPTIONS
    AUXILIARY GHB VARIABLE: SALINITY        
 END OF GHB OPTIONS

 PROCESSING GHB DIMENSIONS
    MAXBOUND =     354
 END OF GHB DIMENSIONS

 RCH   -- RCH PACKAGE, VERSION 8, 2/22/2014 INPUT READ FROM UNIT 1010
 # File generated by Flopy version 3.9.1 on 07/24/2025 at 10:05:48.

 PROCESSING RCH OPTIONS
    RECHARGE INPUT WILL BE READ AS ARRAY(S).
    FLOWS WILL BE SAVED TO BUDGET FILE SPECIFIED IN OUTPUT CONTROL
 END OF RCHA OPTIONS

 CHD   -- CHD PACKAGE, VERSION 8, 2/22/2014 INPUT READ FROM UNIT 1007
 # File generated by Flopy version 3.9.1 on 07/24/2025 at 10:06:53.

 PROCESSING CHD OPTIONS
    AUXILIARY CHD VARIABLE: SALINITY        
    CHD BOUNDARIES HAVE NAMES IN LAST COLUMN.
    FLOWS WILL BE SAVED TO BUDGET FILE SPECIFIED IN OUTPUT CONTROL
 END OF CHD OPTIONS

 PROCESSING CHD DIMENSIONS
    MAXBOUND =    1462
 END OF CHD DIMENSIONS

 CHD   -- CHD PACKAGE, VERSION 8, 2/22/2014 INPUT READ FROM UNIT 1009
 # File generated by Flopy version 3.9.1 on 07/24/2025 at 10:06:52.

 PROCESSING CHD OPTIONS
    AUXILIARY CHD VARIABLE: SALINITY        
    CHD BOUNDARIES HAVE NAMES IN LAST COLUMN.
    FLOWS WILL BE SAVED TO BUDGET FILE SPECIFIED IN OUTPUT CONTROL

 OPENED gwf.chd.obs
 FILE TYPE:OBS   UNIT 1071   STATUS:OLD                 
 FORMAT:FORMATTED              ACCESS:SEQUENTIAL          
 ACTION:READ                

 END OF CHD OPTIONS

 PROCESSING CHD DIMENSIONS
    MAXBOUND =   10264
 END OF CHD DIMENSIONS

 IC -- INITIAL CONDITIONS PACKAGE, VERSION 8, 3/28/2015 INPUT READ FROM UNIT 1013
 # File generated by Flopy version 3.9.1 on 07/24/2025 at 10:05:47.
 PROCESSING IC OPTIONS
 END OF IC OPTIONS
 PROCESSING GRIDDATA

 OPENED .\external\shd_00.dat
 FILE TYPE:OPEN/CLOSE   UNIT 1113   STATUS:OLD                 
 FORMAT:FORMATTED              ACCESS:SEQUENTIAL          
 ACTION:READ                


 OPENED .\external\shd_01.dat
 FILE TYPE:OPEN/CLOSE   UNIT 1114   STATUS:OLD                 
 FORMAT:FORMATTED              ACCESS:SEQUENTIAL          
 ACTION:READ                


 OPENED .\external\shd_02.dat
 FILE TYPE:OPEN/CLOSE   UNIT 1115   STATUS:OLD                 
 FORMAT:FORMATTED              ACCESS:SEQUENTIAL          
 ACTION:READ                


 OPENED .\external\shd_03.dat
 FILE TYPE:OPEN/CLOSE   UNIT 1116   STATUS:OLD                 
 FORMAT:FORMATTED              ACCESS:SEQUENTIAL          
 ACTION:READ                


 OPENED .\external\shd_04.dat
 FILE TYPE:OPEN/CLOSE   UNIT 1117   STATUS:OLD                 
 FORMAT:FORMATTED              ACCESS:SEQUENTIAL          
 ACTION:READ                


 OPENED .\external\shd_05.dat
 FILE TYPE:OPEN/CLOSE   UNIT 1118   STATUS:OLD                 
 FORMAT:FORMATTED              ACCESS:SEQUENTIAL          
 ACTION:READ                


 OPENED .\external\shd_06.dat
 FILE TYPE:OPEN/CLOSE   UNIT 1119   STATUS:OLD                 
 FORMAT:FORMATTED              ACCESS:SEQUENTIAL          
 ACTION:READ                


 OPENED .\external\shd_07.dat
 FILE TYPE:OPEN/CLOSE   UNIT 1120   STATUS:OLD                 
 FORMAT:FORMATTED              ACCESS:SEQUENTIAL          
 ACTION:READ                


 OPENED .\external\shd_08.dat
 FILE TYPE:OPEN/CLOSE   UNIT 1121   STATUS:OLD                 
 FORMAT:FORMATTED              ACCESS:SEQUENTIAL          
 ACTION:READ                


 OPENED .\external\shd_09.dat
 FILE TYPE:OPEN/CLOSE   UNIT 1122   STATUS:OLD                 
 FORMAT:FORMATTED              ACCESS:SEQUENTIAL          
 ACTION:READ                


 OPENED .\external\shd_10.dat
 FILE TYPE:OPEN/CLOSE   UNIT 1123   STATUS:OLD                 
 FORMAT:FORMATTED              ACCESS:SEQUENTIAL          
 ACTION:READ                


 OPENED .\external\shd_11.dat
 FILE TYPE:OPEN/CLOSE   UNIT 1124   STATUS:OLD                 
 FORMAT:FORMATTED              ACCESS:SEQUENTIAL          
 ACTION:READ                


 OPENED .\external\shd_12.dat
 FILE TYPE:OPEN/CLOSE   UNIT 1125   STATUS:OLD                 
 FORMAT:FORMATTED              ACCESS:SEQUENTIAL          
 ACTION:READ                


 OPENED .\external\shd_13.dat
 FILE TYPE:OPEN/CLOSE   UNIT 1126   STATUS:OLD                 
 FORMAT:FORMATTED              ACCESS:SEQUENTIAL          
 ACTION:READ                


 OPENED .\external\shd_14.dat
 FILE TYPE:OPEN/CLOSE   UNIT 1127   STATUS:OLD                 
 FORMAT:FORMATTED              ACCESS:SEQUENTIAL          
 ACTION:READ                


 OPENED .\external\shd_15.dat
 FILE TYPE:OPEN/CLOSE   UNIT 1128   STATUS:OLD                 
 FORMAT:FORMATTED              ACCESS:SEQUENTIAL          
 ACTION:READ                


 OPENED .\external\shd_16.dat
 FILE TYPE:OPEN/CLOSE   UNIT 1129   STATUS:OLD                 
 FORMAT:FORMATTED              ACCESS:SEQUENTIAL          
 ACTION:READ                


 OPENED .\external\shd_17.dat
 FILE TYPE:OPEN/CLOSE   UNIT 1130   STATUS:OLD                 
 FORMAT:FORMATTED              ACCESS:SEQUENTIAL          
 ACTION:READ                


 OPENED .\external\shd_18.dat
 FILE TYPE:OPEN/CLOSE   UNIT 1131   STATUS:OLD                 
 FORMAT:FORMATTED              ACCESS:SEQUENTIAL          
 ACTION:READ                


 OPENED .\external\shd_19.dat
 FILE TYPE:OPEN/CLOSE   UNIT 1132   STATUS:OLD                 
 FORMAT:FORMATTED              ACCESS:SEQUENTIAL          
 ACTION:READ                

 END PROCESSING GRIDDATA
 PROCESSING GRIDDATA

                ICELLTYPE = 1

 OPENED .\external\kh_00.dat
 FILE TYPE:OPEN/CLOSE   UNIT 1133   STATUS:OLD                 
 FORMAT:FORMATTED              ACCESS:SEQUENTIAL          
 ACTION:READ                


 OPENED .\external\kh_01.dat
 FILE TYPE:OPEN/CLOSE   UNIT 1134   STATUS:OLD                 
 FORMAT:FORMATTED              ACCESS:SEQUENTIAL          
 ACTION:READ                


 OPENED .\external\kh_02.dat
 FILE TYPE:OPEN/CLOSE   UNIT 1135   STATUS:OLD                 
 FORMAT:FORMATTED              ACCESS:SEQUENTIAL          
 ACTION:READ                


 OPENED .\external\kh_03.dat
 FILE TYPE:OPEN/CLOSE   UNIT 1136   STATUS:OLD                 
 FORMAT:FORMATTED              ACCESS:SEQUENTIAL          
 ACTION:READ                


 OPENED .\external\kh_04.dat
 FILE TYPE:OPEN/CLOSE   UNIT 1137   STATUS:OLD                 
 FORMAT:FORMATTED              ACCESS:SEQUENTIAL          
 ACTION:READ                


 OPENED .\external\kh_05.dat
 FILE TYPE:OPEN/CLOSE   UNIT 1138   STATUS:OLD                 
 FORMAT:FORMATTED              ACCESS:SEQUENTIAL          
 ACTION:READ                


 OPENED .\external\kh_06.dat
 FILE TYPE:OPEN/CLOSE   UNIT 1139   STATUS:OLD                 
 FORMAT:FORMATTED              ACCESS:SEQUENTIAL          
 ACTION:READ                


 OPENED .\external\kh_07.dat
 FILE TYPE:OPEN/CLOSE   UNIT 1140   STATUS:OLD                 
 FORMAT:FORMATTED              ACCESS:SEQUENTIAL          
 ACTION:READ                


 OPENED .\external\kh_08.dat
 FILE TYPE:OPEN/CLOSE   UNIT 1141   STATUS:OLD                 
 FORMAT:FORMATTED              ACCESS:SEQUENTIAL          
 ACTION:READ                


 OPENED .\external\kh_09.dat
 FILE TYPE:OPEN/CLOSE   UNIT 1142   STATUS:OLD                 
 FORMAT:FORMATTED              ACCESS:SEQUENTIAL          
 ACTION:READ                


 OPENED .\external\kh_10.dat
 FILE TYPE:OPEN/CLOSE   UNIT 1143   STATUS:OLD                 
 FORMAT:FORMATTED              ACCESS:SEQUENTIAL          
 ACTION:READ                


 OPENED .\external\kh_11.dat
 FILE TYPE:OPEN/CLOSE   UNIT 1144   STATUS:OLD                 
 FORMAT:FORMATTED              ACCESS:SEQUENTIAL          
 ACTION:READ                


 OPENED .\external\kh_12.dat
 FILE TYPE:OPEN/CLOSE   UNIT 1145   STATUS:OLD                 
 FORMAT:FORMATTED              ACCESS:SEQUENTIAL          
 ACTION:READ                


 OPENED .\external\kh_13.dat
 FILE TYPE:OPEN/CLOSE   UNIT 1146   STATUS:OLD                 
 FORMAT:FORMATTED              ACCESS:SEQUENTIAL          
 ACTION:READ                


 OPENED .\external\kh_14.dat
 FILE TYPE:OPEN/CLOSE   UNIT 1147   STATUS:OLD                 
 FORMAT:FORMATTED              ACCESS:SEQUENTIAL          
 ACTION:READ                


 OPENED .\external\kh_15.dat
 FILE TYPE:OPEN/CLOSE   UNIT 1148   STATUS:OLD                 
 FORMAT:FORMATTED              ACCESS:SEQUENTIAL          
 ACTION:READ                


 OPENED .\external\kh_16.dat
 FILE TYPE:OPEN/CLOSE   UNIT 1149   STATUS:OLD                 
 FORMAT:FORMATTED              ACCESS:SEQUENTIAL          
 ACTION:READ                


 OPENED .\external\kh_17.dat
 FILE TYPE:OPEN/CLOSE   UNIT 1150   STATUS:OLD                 
 FORMAT:FORMATTED              ACCESS:SEQUENTIAL          
 ACTION:READ                


 OPENED .\external\kh_18.dat
 FILE TYPE:OPEN/CLOSE   UNIT 1151   STATUS:OLD                 
 FORMAT:FORMATTED              ACCESS:SEQUENTIAL          
 ACTION:READ                


 OPENED .\external\kh_19.dat
 FILE TYPE:OPEN/CLOSE   UNIT 1152   STATUS:OLD                 
 FORMAT:FORMATTED              ACCESS:SEQUENTIAL          
 ACTION:READ                


 OPENED .\external\kv_00.dat
 FILE TYPE:OPEN/CLOSE   UNIT 1153   STATUS:OLD                 
 FORMAT:FORMATTED              ACCESS:SEQUENTIAL          
 ACTION:READ                


 OPENED .\external\kv_01.dat
 FILE TYPE:OPEN/CLOSE   UNIT 1154   STATUS:OLD                 
 FORMAT:FORMATTED              ACCESS:SEQUENTIAL          
 ACTION:READ                


 OPENED .\external\kv_02.dat
 FILE TYPE:OPEN/CLOSE   UNIT 1155   STATUS:OLD                 
 FORMAT:FORMATTED              ACCESS:SEQUENTIAL          
 ACTION:READ                


 OPENED .\external\kv_03.dat
 FILE TYPE:OPEN/CLOSE   UNIT 1156   STATUS:OLD                 
 FORMAT:FORMATTED              ACCESS:SEQUENTIAL          
 ACTION:READ                


 OPENED .\external\kv_04.dat
 FILE TYPE:OPEN/CLOSE   UNIT 1157   STATUS:OLD                 
 FORMAT:FORMATTED              ACCESS:SEQUENTIAL          
 ACTION:READ                


 OPENED .\external\kv_05.dat
 FILE TYPE:OPEN/CLOSE   UNIT 1158   STATUS:OLD                 
 FORMAT:FORMATTED              ACCESS:SEQUENTIAL          
 ACTION:READ                


 OPENED .\external\kv_06.dat
 FILE TYPE:OPEN/CLOSE   UNIT 1159   STATUS:OLD                 
 FORMAT:FORMATTED              ACCESS:SEQUENTIAL          
 ACTION:READ                


 OPENED .\external\kv_07.dat
 FILE TYPE:OPEN/CLOSE   UNIT 1160   STATUS:OLD                 
 FORMAT:FORMATTED              ACCESS:SEQUENTIAL          
 ACTION:READ                


 OPENED .\external\kv_08.dat
 FILE TYPE:OPEN/CLOSE   UNIT 1161   STATUS:OLD                 
 FORMAT:FORMATTED              ACCESS:SEQUENTIAL          
 ACTION:READ                


 OPENED .\external\kv_09.dat
 FILE TYPE:OPEN/CLOSE   UNIT 1162   STATUS:OLD                 
 FORMAT:FORMATTED              ACCESS:SEQUENTIAL          
 ACTION:READ                


 OPENED .\external\kv_10.dat
 FILE TYPE:OPEN/CLOSE   UNIT 1163   STATUS:OLD                 
 FORMAT:FORMATTED              ACCESS:SEQUENTIAL          
 ACTION:READ                


 OPENED .\external\kv_11.dat
 FILE TYPE:OPEN/CLOSE   UNIT 1164   STATUS:OLD                 
 FORMAT:FORMATTED              ACCESS:SEQUENTIAL          
 ACTION:READ                


 OPENED .\external\kv_12.dat
 FILE TYPE:OPEN/CLOSE   UNIT 1165   STATUS:OLD                 
 FORMAT:FORMATTED              ACCESS:SEQUENTIAL          
 ACTION:READ                


 OPENED .\external\kv_13.dat
 FILE TYPE:OPEN/CLOSE   UNIT 1166   STATUS:OLD                 
 FORMAT:FORMATTED              ACCESS:SEQUENTIAL          
 ACTION:READ                


 OPENED .\external\kv_14.dat
 FILE TYPE:OPEN/CLOSE   UNIT 1167   STATUS:OLD                 
 FORMAT:FORMATTED              ACCESS:SEQUENTIAL          
 ACTION:READ                


 OPENED .\external\kv_15.dat
 FILE TYPE:OPEN/CLOSE   UNIT 1168   STATUS:OLD                 
 FORMAT:FORMATTED              ACCESS:SEQUENTIAL          
 ACTION:READ                


 OPENED .\external\kv_16.dat
 FILE TYPE:OPEN/CLOSE   UNIT 1169   STATUS:OLD                 
 FORMAT:FORMATTED              ACCESS:SEQUENTIAL          
 ACTION:READ                


 OPENED .\external\kv_17.dat
 FILE TYPE:OPEN/CLOSE   UNIT 1170   STATUS:OLD                 
 FORMAT:FORMATTED              ACCESS:SEQUENTIAL          
 ACTION:READ                


 OPENED .\external\kv_18.dat
 FILE TYPE:OPEN/CLOSE   UNIT 1171   STATUS:OLD                 
 FORMAT:FORMATTED              ACCESS:SEQUENTIAL          
 ACTION:READ                


 OPENED .\external\kv_19.dat
 FILE TYPE:OPEN/CLOSE   UNIT 1172   STATUS:OLD                 
 FORMAT:FORMATTED              ACCESS:SEQUENTIAL          
 ACTION:READ                

 K22 not provided.  Assuming K22 = K.
 END PROCESSING GRIDDATA

 STO -- STORAGE PACKAGE, VERSION 1, 5/19/2014 INPUT READ FROM UNIT 1011


 # File generated by Flopy version 3.9.1 on 07/24/2025 at 10:05:47.
 PROCESSING STORAGE OPTIONS
    CELL-BY-CELL FLOW INFORMATION WILL BE SAVED TO BINARY FILE WHENEVER ICBCFL IS NOT ZERO.
 END OF STORAGE OPTIONS
 PROCESSING GRIDDATA

                 ICONVERT = 1

 OPENED .\external\ss_000.dat
 FILE TYPE:OPEN/CLOSE   UNIT 1173   STATUS:OLD                 
 FORMAT:FORMATTED              ACCESS:SEQUENTIAL          
 ACTION:READ                


 OPENED .\external\ss_001.dat
 FILE TYPE:OPEN/CLOSE   UNIT 1174   STATUS:OLD                 
 FORMAT:FORMATTED              ACCESS:SEQUENTIAL          
 ACTION:READ                


 OPENED .\external\ss_002.dat
 FILE TYPE:OPEN/CLOSE   UNIT 1175   STATUS:OLD                 
 FORMAT:FORMATTED              ACCESS:SEQUENTIAL          
 ACTION:READ                


 OPENED .\external\ss_003.dat
 FILE TYPE:OPEN/CLOSE   UNIT 1176   STATUS:OLD                 
 FORMAT:FORMATTED              ACCESS:SEQUENTIAL          
 ACTION:READ                


 OPENED .\external\ss_004.dat
 FILE TYPE:OPEN/CLOSE   UNIT 1177   STATUS:OLD                 
 FORMAT:FORMATTED              ACCESS:SEQUENTIAL          
 ACTION:READ                


 OPENED .\external\ss_005.dat
 FILE TYPE:OPEN/CLOSE   UNIT 1178   STATUS:OLD                 
 FORMAT:FORMATTED              ACCESS:SEQUENTIAL          
 ACTION:READ                


 OPENED .\external\ss_006.dat
 FILE TYPE:OPEN/CLOSE   UNIT 1179   STATUS:OLD                 
 FORMAT:FORMATTED              ACCESS:SEQUENTIAL          
 ACTION:READ                


 OPENED .\external\ss_007.dat
 FILE TYPE:OPEN/CLOSE   UNIT 1180   STATUS:OLD                 
 FORMAT:FORMATTED              ACCESS:SEQUENTIAL          
 ACTION:READ                


 OPENED .\external\ss_008.dat
 FILE TYPE:OPEN/CLOSE   UNIT 1181   STATUS:OLD                 
 FORMAT:FORMATTED              ACCESS:SEQUENTIAL          
 ACTION:READ                


 OPENED .\external\ss_009.dat
 FILE TYPE:OPEN/CLOSE   UNIT 1182   STATUS:OLD                 
 FORMAT:FORMATTED              ACCESS:SEQUENTIAL          
 ACTION:READ                


 OPENED .\external\ss_010.dat
 FILE TYPE:OPEN/CLOSE   UNIT 1183   STATUS:OLD                 
 FORMAT:FORMATTED              ACCESS:SEQUENTIAL          
 ACTION:READ                


 OPENED .\external\ss_011.dat
 FILE TYPE:OPEN/CLOSE   UNIT 1184   STATUS:OLD                 
 FORMAT:FORMATTED              ACCESS:SEQUENTIAL          
 ACTION:READ                


 OPENED .\external\ss_012.dat
 FILE TYPE:OPEN/CLOSE   UNIT 1185   STATUS:OLD                 
 FORMAT:FORMATTED              ACCESS:SEQUENTIAL          
 ACTION:READ                


 OPENED .\external\ss_013.dat
 FILE TYPE:OPEN/CLOSE   UNIT 1186   STATUS:OLD                 
 FORMAT:FORMATTED              ACCESS:SEQUENTIAL          
 ACTION:READ                


 OPENED .\external\ss_014.dat
 FILE TYPE:OPEN/CLOSE   UNIT 1187   STATUS:OLD                 
 FORMAT:FORMATTED              ACCESS:SEQUENTIAL          
 ACTION:READ                


 OPENED .\external\ss_015.dat
 FILE TYPE:OPEN/CLOSE   UNIT 1188   STATUS:OLD                 
 FORMAT:FORMATTED              ACCESS:SEQUENTIAL          
 ACTION:READ                


 OPENED .\external\ss_016.dat
 FILE TYPE:OPEN/CLOSE   UNIT 1189   STATUS:OLD                 
 FORMAT:FORMATTED              ACCESS:SEQUENTIAL          
 ACTION:READ                


 OPENED .\external\ss_017.dat
 FILE TYPE:OPEN/CLOSE   UNIT 1190   STATUS:OLD                 
 FORMAT:FORMATTED              ACCESS:SEQUENTIAL          
 ACTION:READ                


 OPENED .\external\ss_018.dat
 FILE TYPE:OPEN/CLOSE   UNIT 1191   STATUS:OLD                 
 FORMAT:FORMATTED              ACCESS:SEQUENTIAL          
 ACTION:READ                


 OPENED .\external\ss_019.dat
 FILE TYPE:OPEN/CLOSE   UNIT 1192   STATUS:OLD                 
 FORMAT:FORMATTED              ACCESS:SEQUENTIAL          
 ACTION:READ                


 OPENED .\external\sy_000.dat
 FILE TYPE:OPEN/CLOSE   UNIT 1193   STATUS:OLD                 
 FORMAT:FORMATTED              ACCESS:SEQUENTIAL          
 ACTION:READ                


 OPENED .\external\sy_001.dat
 FILE TYPE:OPEN/CLOSE   UNIT 1194   STATUS:OLD                 
 FORMAT:FORMATTED              ACCESS:SEQUENTIAL          
 ACTION:READ                


 OPENED .\external\sy_002.dat
 FILE TYPE:OPEN/CLOSE   UNIT 1195   STATUS:OLD                 
 FORMAT:FORMATTED              ACCESS:SEQUENTIAL          
 ACTION:READ                


 OPENED .\external\sy_003.dat
 FILE TYPE:OPEN/CLOSE   UNIT 1196   STATUS:OLD                 
 FORMAT:FORMATTED              ACCESS:SEQUENTIAL          
 ACTION:READ                


 OPENED .\external\sy_004.dat
 FILE TYPE:OPEN/CLOSE   UNIT 1197   STATUS:OLD                 
 FORMAT:FORMATTED              ACCESS:SEQUENTIAL          
 ACTION:READ                


 OPENED .\external\sy_005.dat
 FILE TYPE:OPEN/CLOSE   UNIT 1198   STATUS:OLD                 
 FORMAT:FORMATTED              ACCESS:SEQUENTIAL          
 ACTION:READ                


 OPENED .\external\sy_006.dat
 FILE TYPE:OPEN/CLOSE   UNIT 1199   STATUS:OLD                 
 FORMAT:FORMATTED              ACCESS:SEQUENTIAL          
 ACTION:READ                


 OPENED .\external\sy_007.dat
 FILE TYPE:OPEN/CLOSE   UNIT 1200   STATUS:OLD                 
 FORMAT:FORMATTED              ACCESS:SEQUENTIAL          
 ACTION:READ                


 OPENED .\external\sy_008.dat
 FILE TYPE:OPEN/CLOSE   UNIT 1201   STATUS:OLD                 
 FORMAT:FORMATTED              ACCESS:SEQUENTIAL          
 ACTION:READ                


 OPENED .\external\sy_009.dat
 FILE TYPE:OPEN/CLOSE   UNIT 1202   STATUS:OLD                 
 FORMAT:FORMATTED              ACCESS:SEQUENTIAL          
 ACTION:READ                


 OPENED .\external\sy_010.dat
 FILE TYPE:OPEN/CLOSE   UNIT 1203   STATUS:OLD                 
 FORMAT:FORMATTED              ACCESS:SEQUENTIAL          
 ACTION:READ                


 OPENED .\external\sy_011.dat
 FILE TYPE:OPEN/CLOSE   UNIT 1204   STATUS:OLD                 
 FORMAT:FORMATTED              ACCESS:SEQUENTIAL          
 ACTION:READ                


 OPENED .\external\sy_012.dat
 FILE TYPE:OPEN/CLOSE   UNIT 1205   STATUS:OLD                 
 FORMAT:FORMATTED              ACCESS:SEQUENTIAL          
 ACTION:READ                


 OPENED .\external\sy_013.dat
 FILE TYPE:OPEN/CLOSE   UNIT 1206   STATUS:OLD                 
 FORMAT:FORMATTED              ACCESS:SEQUENTIAL          
 ACTION:READ                


 OPENED .\external\sy_014.dat
 FILE TYPE:OPEN/CLOSE   UNIT 1207   STATUS:OLD                 
 FORMAT:FORMATTED              ACCESS:SEQUENTIAL          
 ACTION:READ                


 OPENED .\external\sy_015.dat
 FILE TYPE:OPEN/CLOSE   UNIT 1208   STATUS:OLD                 
 FORMAT:FORMATTED              ACCESS:SEQUENTIAL          
 ACTION:READ                


 OPENED .\external\sy_016.dat
 FILE TYPE:OPEN/CLOSE   UNIT 1209   STATUS:OLD                 
 FORMAT:FORMATTED              ACCESS:SEQUENTIAL          
 ACTION:READ                


 OPENED .\external\sy_017.dat
 FILE TYPE:OPEN/CLOSE   UNIT 1210   STATUS:OLD                 
 FORMAT:FORMATTED              ACCESS:SEQUENTIAL          
 ACTION:READ                


 OPENED .\external\sy_018.dat
 FILE TYPE:OPEN/CLOSE   UNIT 1211   STATUS:OLD                 
 FORMAT:FORMATTED              ACCESS:SEQUENTIAL          
 ACTION:READ                


 OPENED .\external\sy_019.dat
 FILE TYPE:OPEN/CLOSE   UNIT 1212   STATUS:OLD                 
 FORMAT:FORMATTED              ACCESS:SEQUENTIAL          
 ACTION:READ                

 END PROCESSING GRIDDATA
    BINARY GRID INFORMATION WILL BE WRITTEN TO:
      UNIT NUMBER: 1213
      FILE NAME: D:\LISS_GW\GitRepo_CoupledModels\nywsc_compound_flooding\modflow\pj_2018_adjust_2CHDpkg\base\gwf.dis.grb

 OPENED D:\LISS_GW\GitRepo_CoupledModels\nywsc_compound_flooding\modflow\pj_2018_adjust_2CHDpkg\base\gwf.dis.grb
 FILE TYPE:DATA(BINARY)   UNIT 1213   STATUS:REPLACE             
 FORMAT:UNFORMATTED            ACCESS:STREAM              
 ACTION:READWRITE           

      THE LAST TIME STEP WILL BE PRINTED
      THE LAST TIME STEP WILL BE PRINTED
 # File generated by Flopy version 3.9.1 on 07/24/2025 at 10:06:53.

 PROCESSING OC OPTIONS

    BUDGET INFORMATION WILL BE WRITTEN TO:
      UNIT NUMBER: 1214
      FILE NAME: outputs/gwf.cbc

 OPENED outputs/gwf.cbc
 FILE TYPE:DATA(BINARY)   UNIT 1214   STATUS:REPLACE             
 FORMAT:UNFORMATTED            ACCESS:STREAM              
 ACTION:READWRITE           

    HEAD INFORMATION WILL BE WRITTEN TO:
      UNIT NUMBER: 1215
      FILE NAME: outputs/gwf.hds

 OPENED outputs/gwf.hds
 FILE TYPE:DATA(BINARY)   UNIT 1215   STATUS:REPLACE             
 FORMAT:UNFORMATTED            ACCESS:STREAM              
 ACTION:READWRITE           

 END OF OC OPTIONS

The observation utility is active for "WEL_0"
 # File generated by Flopy version 3.9.1 on 07/24/2025 at 10:06:53.

Processing observation options:



The observation utility is active for "DRN"
 # File generated by Flopy version 3.9.1 on 07/24/2025 at 10:06:53.

Processing observation options:



The observation utility is active for "CHD_0"
 # File generated by Flopy version 3.9.1 on 07/24/2025 at 10:05:48.

Processing observation options:



start timestep kper="1" kstp="1" mode="normal"


 BEGIN READING OUTPUT CONTROL FOR STRESS PERIOD 1
      THE LAST TIME STEP WILL BE SAVED

 END READING OUTPUT CONTROL FOR STRESS PERIOD 1


 PROCESSING STORAGE PERIOD DATA
 END PROCESSING STORAGE PERIOD DATA


 STRESS PERIOD 1 IS TRANSIENT


 OPENED .\external\wel_000.dat
 FILE TYPE:OPEN/CLOSE   UNIT 1260   STATUS:OLD                 
 FORMAT:FORMATTED              ACCESS:SEQUENTIAL          
 ACTION:READ                

 #k i j q boundname
 --------------------------------------------------------------------------------------------
  WEL NO.    LAYER    ROW     COL     STRESS RATE    BOUNDNAME                               
 --------------------------------------------------------------------------------------------
     1         9      119     71    -31391.4000      USGS_S_2040                             
     2        11      119     71    -36045.9000      USGS_S_2048                             
     3        10      120     70    -48577.7000      USGS_S_2063                             
     4        12      153     21    -110334.000      USGS_S_2106                             
     5        11      153     21    -135287.000      USGS_S_2119                             
     6        13      119     71    -46732.0000      USGS_S_2123                             
     7        14      147     59    -112091.000      USGS_S_2157                             
     8        11      147     59    -22338.8000      USGS_S_2178                             
     9         5      172     54    -35975.2000      USGS_S_2219                             
     10       14      120     70    -23588.2000      USGS_S_2232                             
     11       12      145     59    -22578.3000      USGS_S_2233                             
     12        8      81      75    -7876.94000      USGS_S_2491                             
     13        8      81      78    -4939.31000      USGS_S_2493                             
     14       12      71      21    -40925.0000      USGS_S_2499                             
     15       14      71      23    -41513.9000      USGS_S_2500                             
     16        7      103     39    -33045.0000      USGS_S_2504                             
     17        7      103     39    -36646.6000      USGS_S_2505                             
     18       15      71      23    -55292.9000      USGS_S_2512                             
     19       14      103     39    -58685.3000      USGS_S_2513                             
     20       13      79      75    -77937.9000      USGS_S_2530                             
 --------------------------------------------------------------------------------------------



 OPENED external/drn.dat
 FILE TYPE:OPEN/CLOSE   UNIT 1261   STATUS:OLD                 
 FORMAT:FORMATTED              ACCESS:SEQUENTIAL          
 ACTION:READ                

 -------------------------------------------------------------------------------------
  DRN NO.    LAYER    ROW     COL      DRAIN EL.       CONDUCTANCE        SALINITY    
 -------------------------------------------------------------------------------------
     1         1      19      28     0.00000000       945.770000       27.1190000     
     2         1      19      26     0.00000000       719.922000       27.1190000     
     3         1      20      29     0.00000000       945.770000       27.1190000     
     4         1      20      28     0.00000000       945.770000       27.1190000     
     5         1      29      39     0.00000000       945.770000       27.1190000     
     6         1      30      42     0.00000000       945.770000       27.1190000     
     7         1      30      41     0.00000000       945.770000       27.1190000     
     8         1      41       9     1.51000000       1220.88600       27.1190000     
     9         1      42      17     0.250000000      1003.02700       27.1190000     
     10        1      42       9     4.80000000       905.439000       27.1190000     
     11        1      42       8     4.72000000       1014.05000       27.1190000     
     12        1      42       7     4.47000000       801.268000       27.1190000     
     13        1      42       6     8.77000000       267.090000       27.1190000     
     14        1      43      20     8.35000000       993.070000       27.1190000     
     15        1      43      19     3.55000000       809.556000       27.1190000     
     16        1      43      16     0.250000000      992.856000       27.1190000     
     17        1      44      19     6.71000000       732.088000       27.1190000     
     18        1      44      15     0.830000000      1009.41100       27.1190000     
     19        1      51      13     15.7500000       922.106000       27.1190000     
     20        1      52      13     21.0600000       969.443000       27.1190000     
     21        1      53      14     17.4800000       1086.04500       0.00000000     
     22        1      54      14     19.7200000       1047.84400       0.00000000     
     23        1      55      14     19.4400000       854.836000       0.00000000     
     24        1      56      13     22.3500000       821.716000       0.00000000     
     25        1      57      13     21.1200000       948.481000       0.00000000     
     26        1      58      12     23.9900000       487.419000       0.00000000     
     27        1      59      11     29.2000000       703.358000       0.00000000     
     28        1      70      62     6.88100000       945.770000       0.00000000     
     29        1      70      61     7.29000000       945.770000       0.00000000     
     30        1      71      60     11.8920000       945.770000       0.00000000     
     31        1      72      59     20.2800000       945.770000       0.00000000     
     32        1      72      58     27.6200000       945.770000       0.00000000     
     33        1      73      57     51.9000000       945.770000       0.00000000     
     34        1      74      56     84.9900000       945.770000       0.00000000     
     35        1      74      55     106.570000       945.770000       0.00000000     
 -------------------------------------------------------------------------------------



 OPENED external/ghb.dat
 FILE TYPE:OPEN/CLOSE   UNIT 1262   STATUS:OLD                 
 FORMAT:FORMATTED              ACCESS:SEQUENTIAL          
 ACTION:READ                

 -------------------------------------------------------------------------------------
  GHB NO.    LAYER    ROW     COL        STAGE         CONDUCTANCE        SALINITY    
 -------------------------------------------------------------------------------------
     1         1      18      27     0.330000000      79.9910000       27.1190000     
     2         1      19      27     0.330000000      239.973000       27.1190000     
     3         1      20      25     0.330000000      1016.21000       27.1190000     
     4         1      20      26     0.330000000      946.675000       27.1190000     
     5         1      20      27     0.330000000      315.557000       27.1190000     
     6         1      21      24     0.330000000      932.543000       27.1190000     
     7         1      21      25     0.330000000      1128.83400       27.1190000     
     8         1      21      26     0.330000000      920.233000       27.1190000     
     9         1      21      27     0.330000000      306.743000       27.1190000     
     10        1      22      23     0.330000000      866.375000       27.1190000     
     11        1      22      24     0.330000000      1195.77400       27.1190000     
     12        1      22      25     0.330000000      1276.99000       27.1190000     
     13        1      22      26     0.330000000      988.197000       27.1190000     
     14        1      22      27     0.330000000      329.398000       27.1190000     
     15        1      23      23     0.330000000      930.330000       27.1190000     
     16        1      23      24     0.330000000      1313.85200       27.1190000     
     17        1      23      25     0.330000000      1460.67800       27.1190000     
     18        1      23      26     0.330000000      1150.56600       27.1190000     
     19        1      23      27     0.330000000      383.521000       27.1190000     
     20        1      24      22     0.330000000      534.830000       27.1190000     
     21        1      24      23     0.330000000      981.725000       27.1190000     
     22        1      24      24     0.330000000      1211.81600       27.1190000     
     23        1      24      25     0.330000000      1225.10800       27.1190000     
     24        1      24      26     0.330000000      923.813000       27.1190000     
     25        1      25      21     0.330000000      700.610000       27.1190000     
     26        1      25      22     0.330000000      962.949000       27.1190000     
     27        1      25      23     0.330000000      1020.55800       27.1190000     
     28        1      25      24     0.330000000      889.667000       27.1190000     
     29        1      26      20     0.330000000      598.513000       27.1190000     
     30        1      26      21     0.330000000      1018.07300       27.1190000     
     31        1      26      22     0.330000000      1184.62600       27.1190000     
     32        1      26      23     0.330000000      1098.17300       27.1190000     
     33        1      27      18     0.330000000      1031.76400       27.1190000     
     34        1      27      19     0.330000000      1121.38400       27.1190000     
     35        1      27      20     0.330000000      1172.77100       27.1190000     
     36        1      27      21     0.330000000      1185.92700       27.1190000     
     37        1      27      22     0.330000000      1199.85900       27.1190000     
     38        1      27      23     0.330000000      1214.56900       27.1190000     
     39        1      28      14     0.330000000      337.267000       27.1190000     
     40        1      28      15     0.330000000      287.162000       27.1190000     
     41        1      28      16     0.330000000      524.987000       27.1190000     
     42        1      28      17     0.330000000      1050.73800       27.1190000     
     43        1      28      18     0.330000000      1276.75800       27.1190000     
     44        1      28      19     0.330000000      1203.04800       27.1190000     
     45        1      28      20     0.330000000      1094.92600       27.1190000     
     46        1      28      22     0.330000000      905.607000       27.1190000     
     47        1      28      23     0.330000000      954.575000       27.1190000     
     48        1      29      12     0.330000000      1046.34400       27.1190000     
     49        1      29      13     0.330000000      1073.41900       27.1190000     
     50        1      29      14     0.330000000      1011.79900       27.1190000     
     51        1      29      15     0.330000000      861.486000       27.1190000     
     52        1      29      16     0.330000000      916.989000       27.1190000     
     53        1      29      17     0.330000000      1178.30500       27.1190000     
     54        1      29      18     0.330000000      1078.90400       27.1190000     
     55        1      30      11     0.330000000      1097.06800       27.1190000     
     56        1      30      12     0.330000000      1365.62400       27.1190000     
     57        1      30      13     0.330000000      1366.50300       27.1190000     
     58        1      30      14     0.330000000      1307.44600       27.1190000     
     59        1      30      15     0.330000000      1188.45400       27.1190000     
     60        1      30      16     0.330000000      1156.37300       27.1190000     
     61        1      30      17     0.330000000      1211.20400       27.1190000     
     62        1      30      18     0.330000000      928.963000       27.1190000     
     63        1      31       8     0.330000000      922.675000       27.1190000     
     64        1      31       9     0.330000000      892.988000       27.1190000     
     65        1      31      10     0.330000000      993.959000       27.1190000     
     66        1      31      11     0.330000000      1225.58900       27.1190000     
     67        1      31      12     0.330000000      1306.62200       27.1190000     
     68        1      31      13     0.330000000      1237.05900       27.1190000     
     69        1      31      14     0.330000000      1224.20700       27.1190000     
     70        1      31      15     0.330000000      1268.06500       27.1190000     
     71        1      31      16     0.330000000      1243.14100       27.1190000     
     72        1      31      17     0.330000000      1149.43500       27.1190000     
     73        1      31      18     0.330000000      826.935000       27.1190000     
     74        1      32       7     0.330000000      921.428000       27.1190000     
     75        1      32       8     0.330000000      1212.11100       27.1190000     
     76        1      32       9     0.330000000      1179.19400       27.1190000     
     77        1      32      10     0.330000000      1196.88900       27.1190000     
     78        1      32      11     0.330000000      1265.19400       27.1190000     
     79        1      32      12     0.330000000      1252.12100       27.1190000     
     80        1      32      13     0.330000000      1157.67000       27.1190000     
     81        1      32      14     0.330000000      1175.42800       27.1190000     
     82        1      32      15     0.330000000      1305.39500       27.1190000     
     83        1      32      16     0.330000000      1305.74600       27.1190000     
     84        1      32      17     0.330000000      1176.48200       27.1190000     
     85        1      32      18     0.330000000      833.887000       27.1190000     
     86        1      33       7     0.330000000      889.244000       27.1190000     
     87        1      33       8     0.330000000      1175.86600       27.1190000     
     88        1      33       9     0.330000000      1156.28300       27.1190000     
     89        1      33      10     0.330000000      1169.62200       27.1190000     
     90        1      33      11     0.330000000      1215.88500       27.1190000     
     91        1      33      12     0.330000000      1202.12200       27.1190000     
     92        1      33      13     0.330000000      1128.33600       27.1190000     
     93        1      33      14     0.330000000      1161.11000       27.1190000     
     94        1      33      15     0.330000000      1300.44300       27.1190000     
     95        1      33      16     0.330000000      1344.18800       27.1190000     
     96        1      33      17     0.330000000      1292.34600       27.1190000     
     97        1      33      18     0.330000000      949.818000       27.1190000     
     98        1      34       7     0.330000000      892.631000       27.1190000     
     99        1      34       8     0.330000000      1179.28300       27.1190000     
    100        1      34       9     0.330000000      1157.50300       27.1190000     
    101        1      34      10     0.330000000      1149.71400       27.1190000     
    102        1      34      11     0.330000000      1155.91500       27.1190000     
    103        1      34      12     0.330000000      1153.95200       27.1190000     
    104        1      34      13     0.330000000      1143.82400       27.1190000     
    105        1      34      14     0.330000000      1189.57000       27.1190000     
    106        1      34      15     0.330000000      1291.19000       27.1190000     
    107        1      34      16     0.330000000      1326.81600       27.1190000     
    108        1      34      17     0.330000000      1296.44800       27.1190000     
    109        1      34      18     0.330000000      960.947000       27.1190000     
    110        1      35       7     0.330000000      931.588000       27.1190000     
    111        1      35       8     0.330000000      1222.36200       27.1190000     
    112        1      35       9     0.330000000      1182.85500       27.1190000     
    113        1      35      10     0.330000000      1137.16300       27.1190000     
    114        1      35      11     0.330000000      1085.28600       27.1190000     
    115        1      35      12     0.330000000      1107.61000       27.1190000     
    116        1      35      13     0.330000000      1204.13300       27.1190000     
    117        1      35      14     0.330000000      1260.80900       27.1190000     
    118        1      35      15     0.330000000      1277.63600       27.1190000     
    119        1      35      16     0.330000000      1253.62900       27.1190000     
    120        1      35      17     0.330000000      1188.78800       27.1190000     
    121        1      35      18     0.330000000      867.275000       27.1190000     
    122        1      36       7     0.330000000      973.333000       27.1190000     
    123        1      36       8     0.330000000      1258.14800       27.1190000     
    124        1      36       9     0.330000000      1178.89300       27.1190000     
    125        1      36      10     0.330000000      1124.71300       27.1190000     
    126        1      36      11     0.330000000      1095.60700       27.1190000     
    127        1      36      12     0.330000000      1129.45600       27.1190000     
    128        1      36      13     0.330000000      1226.25900       27.1190000     
    129        1      36      14     0.330000000      1274.71200       27.1190000     
    130        1      36      15     0.330000000      1274.81400       27.1190000     
    131        1      36      16     0.330000000      1242.06100       27.1190000     
    132        1      36      17     0.330000000      1176.45300       27.1190000     
    133        1      36      18     0.330000000      857.736000       27.1190000     
    134        1      37       7     0.330000000      1017.86400       27.1190000     
    135        1      37       8     0.330000000      1286.63900       27.1190000     
    136        1      37       9     0.330000000      1145.61900       27.1190000     
    137        1      37      10     0.330000000      1112.36500       27.1190000     
    138        1      37      11     0.330000000      1186.87800       27.1190000     
    139        1      37      12     0.330000000      1219.49000       27.1190000     
    140        1      37      13     0.330000000      1210.20100       27.1190000     
    141        1      37      14     0.330000000      1231.27900       27.1190000     
    142        1      37      15     0.330000000      1282.72400       27.1190000     
    143        1      37      16     0.330000000      1292.11200       27.1190000     
    144        1      37      17     0.330000000      1259.44300       27.1190000     
    145        1      37      18     0.330000000      932.330000       27.1190000     
    146        1      38       7     0.330000000      1049.43200       27.1190000     
    147        1      38       8     0.330000000      1320.22100       27.1190000     
    148        1      38       9     0.330000000      1162.18300       27.1190000     
    149        1      38      10     0.330000000      1151.33900       27.1190000     
    150        1      38      11     0.330000000      1287.68800       27.1190000     
    151        1      38      12     0.330000000      1318.30600       27.1190000     
    152        1      38      13     0.330000000      1243.19300       27.1190000     
    153        1      38      14     0.330000000      1242.43100       27.1190000     
    154        1      38      15     0.330000000      1316.01900       27.1190000     
    155        1      38      16     0.330000000      1328.94300       27.1190000     
    156        1      38      17     0.330000000      1281.20400       27.1190000     
    157        1      38      18     0.330000000      943.000000       27.1190000     
    158        1      39       7     0.330000000      1068.03700       27.1190000     
    159        1      39       8     0.330000000      1358.89300       27.1190000     
    160        1      39       9     0.330000000      1228.58700       27.1190000     
    161        1      39      10     0.330000000      1241.63500       27.1190000     
    162        1      39      11     0.330000000      1398.03700       27.1190000     
    163        1      39      12     0.330000000      1425.90400       27.1190000     
    164        1      39      13     0.330000000      1325.23700       27.1190000     
    165        1      39      14     0.330000000      1308.16900       27.1190000     
    166        1      39      15     0.330000000      1374.69800       27.1190000     
    167        1      39      16     0.330000000      1352.55400       27.1190000     
    168        1      39      17     0.330000000      1241.73900       27.1190000     
    169        1      39      18     0.330000000      889.747000       27.1190000     
    170        1      40       7     0.330000000      1075.09400       27.1190000     
    171        1      40       8     0.330000000      1371.68900       27.1190000     
    172        1      40       9     0.330000000      1248.15500       27.1190000     
    173        1      40      10     0.330000000      1249.32000       27.1190000     
    174        1      40      11     0.330000000      1375.18500       27.1190000     
    175        1      40      12     0.330000000      1398.64400       27.1190000     
    176        1      40      13     0.330000000      1319.69900       27.1190000     
    177        1      40      14     0.330000000      1305.87000       27.1190000     
    178        1      40      15     0.330000000      1357.15700       27.1190000     
    179        1      40      16     0.330000000      1330.34900       27.1190000     
    180        1      40      17     0.330000000      1225.44800       27.1190000     
    181        1      40      18     0.330000000      879.747000       27.1190000     
    182        1      41       7     0.330000000      1070.60300       27.1190000     
    183        1      41       8     0.330000000      1358.60800       27.1190000     
    184        1      41      10     0.330000000      1174.39400       27.1190000     
    185        1      41      11     0.330000000      1219.13100       27.1190000     
    186        1      41      12     0.330000000      1236.52600       27.1190000     
    187        1      41      13     0.330000000      1226.58000       27.1190000     
    188        1      41      14     0.330000000      1235.53600       27.1190000     
    189        1      41      15     0.330000000      1263.39500       27.1190000     
    190        1      41      16     0.330000000      1262.32600       27.1190000     
    191        1      41      17     0.330000000      1232.33100       27.1190000     
    192        1      42      11     0.330000000      855.828000       27.1190000     
    193        1      42      12     0.330000000      949.799000       27.1190000     
    194        1      42      13     0.330000000      1134.60800       27.1190000     
    195        1      42      14     0.330000000      1226.06700       27.1190000     
    196        1      42      15     0.330000000      1224.17600       27.1190000     
    197        1      42      16     0.330000000      1149.82900       27.1190000     
    198        1      42      37     0.330000000      69.2450000       27.1190000     
    199        1      43      13     0.330000000      1043.78500       27.1190000     
    200        1      43      14     0.330000000      1277.46400       27.1190000     
    201        1      43      15     0.330000000      1239.50000       27.1190000     
    202        1      43      36     0.330000000      623.209000       27.1190000     
    203        1      43      37     0.330000000      207.736000       27.1190000     
    204        1      44      13     0.330000000      970.901000       27.1190000     
    205        1      44      14     0.330000000      1199.49200       27.1190000     
    206        1      44      20     0.330000000      1069.77900       27.1190000     
    207        1      44      21     0.330000000      1257.10500       27.1190000     
    208        1      44      22     0.330000000      1073.17400       27.1190000     
    209        1      44      34     0.330000000      493.397000       27.1190000     
    210        1      44      35     0.330000000      915.246000       27.1190000     
    211        1      44      36     0.330000000      844.625000       27.1190000     
    212        1      44      37     0.330000000      281.541000       27.1190000     
    213        1      45      13     0.330000000      915.957000       27.1190000     
    214        1      45      20     0.330000000      561.150000       27.1190000     
    215        1      45      21     0.330000000      1032.70400       27.1190000     
    216        1      45      22     0.330000000      1131.65500       27.1190000     
    217        1      45      23     0.330000000      858.008000       27.1190000     
    218        1      45      33     0.330000000      635.561000       27.1190000     
    219        1      45      34     0.330000000      926.223000       27.1190000     
    220        1      45      35     0.330000000      1083.84100       27.1190000     
    221        1      45      36     0.330000000      871.986000       27.1190000     
    222        1      45      37     0.330000000      290.661000       27.1190000     
    223        1      46      13     0.330000000      869.527000       27.1190000     
    224        1      46      20     0.330000000      544.760000       27.1190000     
    225        1      46      21     0.330000000      1006.85300       27.1190000     
    226        1      46      22     0.330000000      1204.25800       27.1190000     
    227        1      46      23     0.330000000      1136.97800       27.1190000     
    228        1      46      34     0.330000000      930.014000       27.1190000     
    229        1      46      35     0.330000000      1095.21400       27.1190000     
    230        1      46      36     0.330000000      883.358000       27.1190000     
    231        1      47      13     0.330000000      831.612000       27.1190000     
    232        1      47      19     0.330000000      705.854000       27.1190000     
    233        1      47      20     0.330000000      1020.61000       27.1190000     
    234        1      47      21     0.330000000      1179.55300       27.1190000     
    235        1      47      22     0.330000000      1290.98200       27.1190000     
    236        1      47      23     0.330000000      1354.89700       27.1190000     
    237        1      47      24     0.330000000      1040.13900       27.1190000     
    238        1      47      34     0.330000000      504.769000       27.1190000     
    239        1      47      35     0.330000000      949.363000       27.1190000     
    240        1      47      36     0.330000000      878.743000       27.1190000     
    241        1      48      13     0.330000000      848.242000       27.1190000     
    242        1      48      19     0.330000000      934.410000       27.1190000     
    243        1      48      20     0.330000000      1251.99600       27.1190000     
    244        1      48      21     0.330000000      1264.23400       27.1190000     
    245        1      48      22     0.330000000      1311.84300       27.1190000     
    246        1      48      23     0.330000000      1394.82100       27.1190000     
    247        1      48      24     0.330000000      1153.01000       27.1190000     
    248        1      48      34     0.330000000      551.003000       27.1190000     
    249        1      48      35     0.330000000      1019.61400       27.1190000     
    250        1      48      36     0.330000000      940.437000       27.1190000     
    251        1      49      13     0.330000000      919.417000       27.1190000     
    252        1      49      19     0.330000000      920.951000       27.1190000     
    253        1      49      20     0.330000000      1238.92100       27.1190000     
    254        1      49      21     0.330000000      1260.89600       27.1190000     
    255        1      49      22     0.330000000      1266.84000       27.1190000     
    256        1      49      23     0.330000000      1256.75100       27.1190000     
    257        1      49      24     0.330000000      1166.11600       27.1190000     
    258        1      49      25     0.330000000      994.938000       27.1190000     
    259        1      49      33     0.330000000      712.569000       27.1190000     
    260        1      49      34     0.330000000      1068.71600       27.1190000     
    261        1      49      35     0.330000000      1305.96500       27.1190000     
    262        1      49      36     0.330000000      1068.44000       27.1190000     
    263        1      50      13     0.330000000      944.038000       27.1190000     
    264        1      50      19     0.330000000      685.666000       27.1190000     
    265        1      50      20     0.330000000      997.470000       27.1190000     
    266        1      50      21     0.330000000      1163.96800       27.1190000     
    267        1      50      22     0.330000000      1235.75700       27.1190000     
    268        1      50      23     0.330000000      1212.83800       27.1190000     
    269        1      50      24     0.330000000      1208.67600       27.1190000     
    270        1      50      33     0.330000000      993.626000       27.1190000     
    271        1      50      34     0.330000000      1254.35400       27.1190000     
    272        1      50      35     0.330000000      1342.35300       27.1190000     
    273        1      50      36     0.330000000      1039.76200       27.1190000     
    274        1      51      20     0.330000000      527.644000       27.1190000     
    275        1      51      21     0.330000000      973.449000       27.1190000     
    276        1      51      22     0.330000000      1218.59500       27.1190000     
    277        1      51      23     0.330000000      1263.08200       27.1190000     
    278        1      51      24     0.330000000      1280.69000       27.1190000     
    279        1      51      31     0.330000000      1004.05400       27.1190000     
    280        1      51      32     0.330000000      1047.10700       27.1190000     
    281        1      51      33     0.330000000      1080.69400       27.1190000     
    282        1      51      34     0.330000000      1107.91800       27.1190000     
    283        1      51      35     0.330000000      1128.77600       27.1190000     
    284        1      51      36     0.330000000      854.403000       27.1190000     
    285        1      52      21     0.330000000      658.642000       27.1190000     
    286        1      52      22     0.330000000      907.510000       27.1190000     
    287        1      52      23     0.330000000      966.153000       27.1190000     
    288        1      52      24     0.330000000      1067.03800       27.1190000     
    289        1      52      25     0.330000000      1210.16300       27.1190000     
    290        1      52      26     0.330000000      1335.51500       27.1190000     
    291        1      52      27     0.330000000      1443.09500       27.1190000     
    292        1      52      28     0.330000000      1428.20900       27.1190000     
    293        1      52      29     0.330000000      1290.85700       27.1190000     
    294        1      52      30     0.330000000      1245.96600       27.1190000     
    295        1      52      31     0.330000000      1293.53300       27.1190000     
    296        1      52      32     0.330000000      1265.61000       27.1190000     
    297        1      52      33     0.330000000      1162.20000       27.1190000     
    298        1      52      34     0.330000000      1101.47000       27.1190000     
    299        1      52      35     0.330000000      1083.42100       27.1190000     
    300        1      52      36     0.330000000      877.756000       27.1190000     
    301        1      53      24     0.330000000      567.720000       27.1190000     
    302        1      53      25     0.330000000      1039.50700       27.1190000     
    303        1      53      26     0.330000000      1335.50700       27.1190000     
    304        1      53      27     0.330000000      1455.72100       27.1190000     
    305        1      53      28     0.330000000      1436.65500       27.1190000     
    306        1      53      29     0.330000000      1278.30900       27.1190000     
    307        1      53      30     0.330000000      1200.46400       27.1190000     
    308        1      53      31     0.330000000      1203.12000       27.1190000     
    309        1      53      32     0.330000000      1215.67900       27.1190000     
    310        1      53      33     0.330000000      1238.14200       27.1190000     
    311        1      53      34     0.330000000      1235.01100       27.1190000     
    312        1      53      35     0.330000000      1206.28600       27.1190000     
    313        1      53      36     0.330000000      1109.82100       27.1190000     
    314        1      53      37     0.330000000      945.616000       27.1190000     
    315        1      54      25     0.330000000      972.864000       27.1190000     
    316        1      54      26     0.330000000      1342.20200       27.1190000     
    317        1      54      27     0.330000000      1432.30500       27.1190000     
    318        1      54      28     0.330000000      1401.10700       27.1190000     
    319        1      54      29     0.330000000      1248.61000       27.1190000     
    320        1      54      30     0.330000000      1094.52400       27.1190000     
    321        1      54      31     0.330000000      938.848000       27.1190000     
    322        1      54      32     0.330000000      893.035000       27.1190000     
    323        1      54      33     0.330000000      957.085000       27.1190000     
    324        1      54      34     0.330000000      976.336000       27.1190000     
    325        1      54      35     0.330000000      950.789000       27.1190000     
    326        1      54      36     0.330000000      1003.56200       27.1190000     
    327        1      54      37     0.330000000      1134.65300       27.1190000     
    328        1      55      25     0.330000000      1010.23300       27.1190000     
    329        1      55      26     0.330000000      1355.59800       27.1190000     
    330        1      55      27     0.330000000      1372.84500       27.1190000     
    331        1      55      28     0.330000000      1321.56600       27.1190000     
    332        1      55      29     0.330000000      1201.76000       27.1190000     
    333        1      55      30     0.330000000      928.143000       27.1190000     
    334        1      55      31     0.330000000      500.716000       27.1190000     
    335        1      55      37     0.330000000      1051.58800       27.1190000     
    336        1      55      38     0.330000000      973.417000       27.1190000     
    337        1      56      25     0.330000000      1041.92500       27.1190000     
    338        1      56      26     0.330000000      1361.14600       27.1190000     
    339        1      56      27     0.330000000      1304.97600       27.1190000     
    340        1      56      28     0.330000000      1168.90600       27.1190000     
    341        1      56      29     0.330000000      952.938000       27.1190000     
    342        1      56      30     0.330000000      633.715000       27.1190000     
    343        1      57      25     0.330000000      1067.94100       27.1190000     
    344        1      57      26     0.330000000      1358.84400       27.1190000     
    345        1      57      27     0.330000000      1228.69600       27.1190000     
    346        1      57      28     0.330000000      943.128000       27.1190000     
    347        1      58      26     0.330000000      1104.46300       27.1190000     
    348        1      58      27     0.330000000      1151.49600       27.1190000     
    349        1      58      28     0.330000000      881.258000       27.1190000     
    350        1      59      27     0.330000000      1073.37700       27.1190000     
    351        1      59      28     0.330000000      983.295000       27.1190000     
    352        1      60      27     0.330000000      775.738000       27.1190000     
    353        1      60      28     0.330000000      775.735000       27.1190000     
    354        1      61      28     0.330000000      258.578000       27.1190000     
 -------------------------------------------------------------------------------------



 OPENED .\external\irch.dat
 FILE TYPE:OPEN/CLOSE   UNIT 1263   STATUS:OLD                 
 FORMAT:FORMATTED              ACCESS:SEQUENTIAL          
 ACTION:READ                


 OPENED .\external\rch_000.dat
 FILE TYPE:OPEN/CLOSE   UNIT 1264   STATUS:OLD                 
 FORMAT:FORMATTED              ACCESS:SEQUENTIAL          
 ACTION:READ                


 OPENED ./external/chd_coastal.dat
 FILE TYPE:OPEN/CLOSE   UNIT 1265   STATUS:OLD                 
 FORMAT:FORMATTED              ACCESS:SEQUENTIAL          
 ACTION:READ                

 -------------------------------------------------------------------------------------------------------------
  CHD NO.    LAYER    ROW     COL         HEAD       BOUNDNAME                                    SALINITY    
 -------------------------------------------------------------------------------------------------------------
     1         1       4      20     0.330000000     BAY                                       33.9000000     
     2         1       4      21     0.330000000     BAY                                       34.6000000     
     3         1       4      22     0.330000000     BAY                                       34.9000000     
     4         1       4      23     0.330000000     BAY                                       34.7000000     
     5         1       4      24     0.330000000     BAY                                       34.7000000     
     6         1       4      25     0.330000000     BAY                                       34.9000000     
     7         1       4      26     0.330000000     BAY                                       34.7000000     
     8         1       4      27     0.330000000     BAY                                       34.1000000     
     9         1       5      19     0.330000000     BAY                                       34.4000000     
     10        1       5      20     0.330000000     BAY                                       34.6000000     
     11        1       5      21     0.330000000     BAY                                       34.9000000     
     12        1       5      22     0.330000000     BAY                                       35.0000000     
     13        1       5      23     0.330000000     BAY                                       34.9000000     
     14        1       5      24     0.330000000     BAY                                       34.9000000     
     15        1       5      25     0.330000000     BAY                                       35.0000000     
     16        1       5      26     0.330000000     BAY                                       34.9000000     
     17        1       5      27     0.330000000     BAY                                       34.7000000     
     18        1       5      28     0.330000000     BAY                                       34.7000000     
     19        1       6      18     0.330000000     BAY                                       34.2000000     
     20        1       6      19     0.330000000     BAY                                       34.7000000     
     21        1       6      20     0.330000000     BAY                                       35.0000000     
     22        1       6      21     0.330000000     BAY                                       35.0000000     
     23        1       6      22     0.330000000     BAY                                       35.0000000     
     24        1       6      23     0.330000000     BAY                                       35.0000000     
     25        1       6      24     0.330000000     BAY                                       35.0000000     
     26        1       6      25     0.330000000     BAY                                       35.0000000     
     27        1       6      26     0.330000000     BAY                                       35.0000000     
     28        1       6      27     0.330000000     BAY                                       35.0000000     
[...]
    9943      20      149     17     21.3180000      PERIMETER-HEADS                           0.00000000     
    9944      20      150     17     21.3660000      PERIMETER-HEADS                           0.00000000     
    9945      20      151     15     21.4040000      PERIMETER-HEADS                           0.00000000     
    9946      20      152     15     21.4510000      PERIMETER-HEADS                           0.00000000     
    9947      20      153     15     21.4980000      PERIMETER-HEADS                           0.00000000     
    9948      20      154     15     21.5440000      PERIMETER-HEADS                           0.00000000     
    9949      20      155     15     21.5900000      PERIMETER-HEADS                           0.00000000     
    9950      20      156     15     21.6360000      PERIMETER-HEADS                           0.00000000     
    9951      20      157     15     21.6820000      PERIMETER-HEADS                           0.00000000     
    9952      20      158     15     21.7270000      PERIMETER-HEADS                           0.00000000     
    9953      20      159     15     21.7710000      PERIMETER-HEADS                           0.00000000     
    9954      20      160     15     21.8160000      PERIMETER-HEADS                           0.00000000     
    9955      20      161     17     21.8670000      PERIMETER-HEADS                           0.00000000     
    9956      20      162     17     21.9110000      PERIMETER-HEADS                           0.00000000     
    9957      20      163     17     21.9530000      PERIMETER-HEADS                           0.00000000     
    9958      20      164     17     21.9960000      PERIMETER-HEADS                           0.00000000     
    9959      20      165     17     22.0380000      PERIMETER-HEADS                           0.00000000     
    9960      20      166     17     22.0790000      PERIMETER-HEADS                           0.00000000     
    9961      20      167     17     22.1210000      PERIMETER-HEADS                           0.00000000     
    9962      20      168     17     22.1620000      PERIMETER-HEADS                           0.00000000     
    9963      20      169     17     22.2020000      PERIMETER-HEADS                           0.00000000     
    9964      20      170     17     22.2420000      PERIMETER-HEADS                           0.00000000     
    9965      20      171     17     22.2820000      PERIMETER-HEADS                           0.00000000     
    9966      20      172     17     22.3220000      PERIMETER-HEADS                           0.00000000     
    9967      20      173     17     22.3610000      PERIMETER-HEADS                           0.00000000     
    9968      20      174     17     22.4000000      PERIMETER-HEADS                           0.00000000     
    9969      20      175     21     22.4430000      PERIMETER-HEADS                           0.00000000     
    9970      20      176     21     22.4810000      PERIMETER-HEADS                           0.00000000     
    9971      20      177     25     22.5230000      PERIMETER-HEADS                           0.00000000     
    9972      20      178     25     22.5600000      PERIMETER-HEADS                           0.00000000     
    9973      20      179     27     22.5990000      PERIMETER-HEADS                           0.00000000     
    9974      20      180     27     22.6370000      PERIMETER-HEADS                           0.00000000     
    9975      20      181     33     22.6740000      PERIMETER-HEADS                           0.00000000     
    9976      20      182     33     22.7100000      PERIMETER-HEADS                           0.00000000     
    9977      20      10      23     11.0160000      PERIMETER-HEADS                           0.00000000     
    9978      20      10      24     11.0460000      PERIMETER-HEADS                           0.00000000     
    9979      20      10      25     11.0780000      PERIMETER-HEADS                           0.00000000     
    9980      20      10      26     11.1100000      PERIMETER-HEADS                           0.00000000     
    9981      20      12      19     11.0820000      PERIMETER-HEADS                           0.00000000     
    9982      20      12      20     11.1090000      PERIMETER-HEADS                           0.00000000     
    9983      20      12      21     11.1370000      PERIMETER-HEADS                           0.00000000     
    9984      20      14      16     11.1880000      PERIMETER-HEADS                           0.00000000     
    9985      20      14      17     11.2120000      PERIMETER-HEADS                           0.00000000     
    9986      20      36      71     13.9110000      PERIMETER-HEADS                           0.00000000     
    9987      20      36      72     13.8990000      PERIMETER-HEADS                           0.00000000     
    9988      20      36      73     13.8840000      PERIMETER-HEADS                           0.00000000     
    9989      20      36      74     13.8690000      PERIMETER-HEADS                           0.00000000     
    9990      20      38      76     13.9520000      PERIMETER-HEADS                           0.00000000     
    9991      20      38      77     13.9330000      PERIMETER-HEADS                           0.00000000     
    9992      20      54       2     14.2370000      PERIMETER-HEADS                           0.00000000     
    9993      20      64       4     15.0810000      PERIMETER-HEADS                           0.00000000     
    9994      20      76       6     16.1040000      PERIMETER-HEADS                           0.00000000     
    9995      20      86       8     16.9660000      PERIMETER-HEADS                           0.00000000     
    9996      20      92      10     17.4880000      PERIMETER-HEADS                           0.00000000     
    9997      20      96      79     18.0380000      PERIMETER-HEADS                           0.00000000     
    9998      20      96      80     18.0350000      PERIMETER-HEADS                           0.00000000     
    9999      20      96      81     18.0320000      PERIMETER-HEADS                           0.00000000     
   10000      20      104     12     18.4560000      PERIMETER-HEADS                           0.00000000     
   10001      20      118     77     19.5870000      PERIMETER-HEADS                           0.00000000     
   10002      20      122     14     19.7400000      PERIMETER-HEADS                           0.00000000     
   10003      20      126     71     20.1310000      PERIMETER-HEADS                           0.00000000     
   10004      20      126     72     20.1280000      PERIMETER-HEADS                           0.00000000     
   10005      20      126     73     20.1250000      PERIMETER-HEADS                           0.00000000     
   10006      20      126     74     20.1220000      PERIMETER-HEADS                           0.00000000     
   10007      20      126     75     20.1190000      PERIMETER-HEADS                           0.00000000     
   10008      20      132     16     20.4040000      PERIMETER-HEADS                           0.00000000     
   10009      20      132     69     20.4990000      PERIMETER-HEADS                           0.00000000     
   10010      20      138     67     20.8360000      PERIMETER-HEADS                           0.00000000     
   10011      20      142     18     20.9760000      PERIMETER-HEADS                           0.00000000     
   10012      20      150     65     21.4310000      PERIMETER-HEADS                           0.00000000     
   10013      20      156     63     21.7080000      PERIMETER-HEADS                           0.00000000     
   10014      20      160     16     21.8200000      PERIMETER-HEADS                           0.00000000     
   10015      20      168     59     22.1970000      PERIMETER-HEADS                           0.00000000     
   10016      20      168     60     22.1960000      PERIMETER-HEADS                           0.00000000     
   10017      20      168     61     22.1940000      PERIMETER-HEADS                           0.00000000     
   10018      20      174     18     22.4010000      PERIMETER-HEADS                           0.00000000     
   10019      20      174     19     22.4020000      PERIMETER-HEADS                           0.00000000     
   10020      20      174     20     22.4030000      PERIMETER-HEADS                           0.00000000     
   10021      20      176     22     22.4820000      PERIMETER-HEADS                           0.00000000     
   10022      20      176     23     22.4830000      PERIMETER-HEADS                           0.00000000     
   10023      20      176     24     22.4840000      PERIMETER-HEADS                           0.00000000     
   10024      20      178     26     22.5610000      PERIMETER-HEADS                           0.00000000     
   10025      20      178     51     22.5620000      PERIMETER-HEADS                           0.00000000     
   10026      20      178     52     22.5620000      PERIMETER-HEADS                           0.00000000     
   10027      20      178     53     22.5620000      PERIMETER-HEADS                           0.00000000     
   10028      20      178     54     22.5610000      PERIMETER-HEADS                           0.00000000     
   10029      20      178     55     22.5610000      PERIMETER-HEADS                           0.00000000     
   10030      20      178     56     22.5600000      PERIMETER-HEADS                           0.00000000     
   10031      20      178     57     22.5590000      PERIMETER-HEADS                           0.00000000     
   10032      20      180     28     22.6370000      PERIMETER-HEADS                           0.00000000     
   10033      20      180     29     22.6370000      PERIMETER-HEADS                           0.00000000     
   10034      20      180     30     22.6370000      PERIMETER-HEADS                           0.00000000     
   10035      20      180     31     22.6370000      PERIMETER-HEADS                           0.00000000     
   10036      20      180     32     22.6370000      PERIMETER-HEADS                           0.00000000     
   10037      20      182     34     22.7100000      PERIMETER-HEADS                           0.00000000     
   10038      20      182     35     22.7100000      PERIMETER-HEADS                           0.00000000     
   10039      20      182     36     22.7090000      PERIMETER-HEADS                           0.00000000     
   10040      20      182     37     22.7090000      PERIMETER-HEADS                           0.00000000     
   10041      20      182     38     22.7080000      PERIMETER-HEADS                           0.00000000     
   10042      20      182     39     22.7080000      PERIMETER-HEADS                           0.00000000     
   10043      20      182     40     22.7070000      PERIMETER-HEADS                           0.00000000     
   10044      20      182     41     22.7070000      PERIMETER-HEADS                           0.00000000     
   10045      20      182     42     22.7060000      PERIMETER-HEADS                           0.00000000     
   10046      20      182     43     22.7060000      PERIMETER-HEADS                           0.00000000     
   10047      20      182     44     22.7050000      PERIMETER-HEADS                           0.00000000     
   10048      20      182     45     22.7050000      PERIMETER-HEADS                           0.00000000     
   10049      20      182     46     22.7040000      PERIMETER-HEADS                           0.00000000     
   10050      20      182     47     22.7040000      PERIMETER-HEADS                           0.00000000     
   10051      20      182     48     22.7040000      PERIMETER-HEADS                           0.00000000     
   10052      20      182     49     22.7030000      PERIMETER-HEADS                           0.00000000     
   10053      20       3      20     10.2780000      PERIMETER-HEADS                           0.00000000     
   10054      20       3      21     10.3170000      PERIMETER-HEADS                           0.00000000     
   10055      20       3      22     10.3520000      PERIMETER-HEADS                           0.00000000     
   10056      20       3      23     10.3870000      PERIMETER-HEADS                           0.00000000     
   10057      20       3      24     10.4270000      PERIMETER-HEADS                           0.00000000     
   10058      20       3      25     10.4610000      PERIMETER-HEADS                           0.00000000     
   10059      20       3      26     10.4980000      PERIMETER-HEADS                           0.00000000     
   10060      20       3      27     10.5300000      PERIMETER-HEADS                           0.00000000     
   10061      20       5      18     10.4250000      PERIMETER-HEADS                           0.00000000     
   10062      20       5      29     10.7780000      PERIMETER-HEADS                           0.00000000     
   10063      20       7      16     10.5520000      PERIMETER-HEADS                           0.00000000     
   10064      20       7      31     11.0220000      PERIMETER-HEADS                           0.00000000     
   10065      20      11      33     11.4460000      PERIMETER-HEADS                           0.00000000     
   10066      20      13      35     11.7020000      PERIMETER-HEADS                           0.00000000     
   10067      20      13      46     10.2040000      PERIMETER-HEADS                           4.00000000     
   10068      20      13      47     9.34900000      PERIMETER-HEADS                           6.70000000     
   10069      20      13      48     8.06400000      PERIMETER-HEADS                           10.0000000     
   10070      20      13      49     6.30500000      PERIMETER-HEADS                           14.0000000     
   10071      20      15      42     12.2500000      PERIMETER-HEADS                           0.00000000     
   10072      20      15      43     12.3040000      PERIMETER-HEADS                           0.00000000     
   10073      20      15      44     12.2560000      PERIMETER-HEADS                           0.100000000    
   10074      20      15      51     8.55700000      PERIMETER-HEADS                           9.60000000     
   10075      20      17      24     11.6710000      PERIMETER-HEADS                           0.00000000     
   10076      20      17      25     11.7010000      PERIMETER-HEADS                           0.00000000     
   10077      20      17      26     11.7320000      PERIMETER-HEADS                           0.00000000     
   10078      20      17      37     12.1460000      PERIMETER-HEADS                           0.00000000     
   10079      20      17      38     12.2010000      PERIMETER-HEADS                           0.00000000     
   10080      20      17      39     12.2500000      PERIMETER-HEADS                           0.00000000     
   10081      20      17      40     12.3040000      PERIMETER-HEADS                           0.00000000     
   10082      20      17      53     10.9760000      PERIMETER-HEADS                           5.20000000     
   10083      20      19      22     11.7930000      PERIMETER-HEADS                           0.00000000     
   10084      20      19      55     12.0080000      PERIMETER-HEADS                           2.00000000     
   10085      20      21      20     11.9170000      PERIMETER-HEADS                           0.00000000     
   10086      20      21      57     12.9210000      PERIMETER-HEADS                           0.500000000    
   10087      20      21      58     12.4720000      PERIMETER-HEADS                           0.900000000    
   10088      20      21      59     12.4640000      PERIMETER-HEADS                           1.50000000     
   10089      20      21      60     12.3300000      PERIMETER-HEADS                           2.30000000     
   10090      20      21      61     12.0940000      PERIMETER-HEADS                           3.40000000     
   10091      20      21      62     11.2150000      PERIMETER-HEADS                           4.70000000     
   10092      20      21      63     10.6410000      PERIMETER-HEADS                           6.20000000     
   10093      20      21      64     9.76900000      PERIMETER-HEADS                           7.70000000     
   10094      20      21      65     9.05700000      PERIMETER-HEADS                           9.30000000     
   10095      20      23      16     11.9980000      PERIMETER-HEADS                           0.00000000     
   10096      20      23      17     12.0200000      PERIMETER-HEADS                           0.00000000     
   10097      20      23      18     12.0440000      PERIMETER-HEADS                           0.00000000     
   10098      20      23      67     12.4450000      PERIMETER-HEADS                           2.50000000     
   10099      20      23      68     12.0240000      PERIMETER-HEADS                           3.20000000     
   10100      20      23      69     11.7350000      PERIMETER-HEADS                           4.10000000     
   10101      20      25      12     12.0880000      PERIMETER-HEADS                           0.00000000     
   10102      20      25      13     12.1080000      PERIMETER-HEADS                           0.00000000     
   10103      20      25      14     12.1290000      PERIMETER-HEADS                           0.00000000     
   10104      20      25      71     13.2280000      PERIMETER-HEADS                           0.700000000    
   10105      20      27      10     12.2210000      PERIMETER-HEADS                           0.00000000     
   10106      20      27      73     13.4560000      PERIMETER-HEADS                           0.00000000     
   10107      20      29       8     12.3540000      PERIMETER-HEADS                           0.00000000     
   10108      20      29      75     13.4960000      PERIMETER-HEADS                           0.00000000     
   10109      20      31       4     12.4490000      PERIMETER-HEADS                           0.00000000     
   10110      20      31       5     12.4680000      PERIMETER-HEADS                           0.00000000     
   10111      20      31       6     12.4860000      PERIMETER-HEADS                           0.00000000     
   10112      20      31      77     13.5360000      PERIMETER-HEADS                           0.00000000     
   10113      20      35       2     12.7450000      PERIMETER-HEADS                           0.00000000     
   10114      20      43      71     14.3250000      PERIMETER-HEADS                           0.00000000     
   10115      20      51      73     14.8290000      PERIMETER-HEADS                           0.00000000     
   10116      20      57      75     15.2220000      PERIMETER-HEADS                           0.00000000     
   10117      20      71      77     16.1610000      PERIMETER-HEADS                           0.00000000     
   10118      20      73      79     16.2940000      PERIMETER-HEADS                           0.00000000     
   10119      20      75      81     16.4290000      PERIMETER-HEADS                           0.00000000     
   10120      20      147     18     21.2270000      PERIMETER-HEADS                           0.00000000     
   10121      20      151     16     21.4090000      PERIMETER-HEADS                           0.00000000     
 -------------------------------------------------------------------------------------------------------------


